                                  MODFLOW-NWT-SWR1 
      U.S. GEOLOGICAL SURVEY MODULAR FINITE-DIFFERENCE GROUNDWATER-FLOW MODEL
                             VERSION 1.1.4 4/01/2018
                    BASED ON MODFLOW-2005 VERSION 1.12.00 02/03/2017

 LIST FILE: LLANQUIHUE.list
                         UNIT    2

 OPENING LLANQUIHUE.dis
 FILE TYPE:DIS   UNIT   11   STATUS:OLD    
 FORMAT:FORMATTED              ACCESS:SEQUENTIAL          

 OPENING LLANQUIHUE.bas
 FILE TYPE:BAS6   UNIT   13   STATUS:OLD    
 FORMAT:FORMATTED              ACCESS:SEQUENTIAL          

 OPENING LLANQUIHUE.upw
 FILE TYPE:UPW   UNIT   31   STATUS:OLD    
 FORMAT:FORMATTED              ACCESS:SEQUENTIAL          

 OPENING LLANQUIHUE.drn
 FILE TYPE:DRN   UNIT   21   STATUS:OLD    
 FORMAT:FORMATTED              ACCESS:SEQUENTIAL          

 OPENING LLANQUIHUE.rch
 FILE TYPE:RCH   UNIT   19   STATUS:OLD    
 FORMAT:FORMATTED              ACCESS:SEQUENTIAL          

 OPENING LLANQUIHUE.oc
 FILE TYPE:OC   UNIT   14   STATUS:OLD    
 FORMAT:FORMATTED              ACCESS:SEQUENTIAL          

 OPENING LLANQUIHUE.nwt
 FILE TYPE:NWT   UNIT   32   STATUS:OLD    
 FORMAT:FORMATTED              ACCESS:SEQUENTIAL          

 OPENING LLANQUIHUE.cbc
 FILE TYPE:DATA(BINARY)   UNIT   53   STATUS:REPLACE
 FORMAT:BINARY                 ACCESS:SEQUENTIAL          

 OPENING LLANQUIHUE.hds
 FILE TYPE:DATA(BINARY)   UNIT   51   STATUS:REPLACE
 FORMAT:BINARY                 ACCESS:SEQUENTIAL          

 BAS -- BASIC PACKAGE, VERSION 1.1.4, 4/01/2018 INPUT READ FROM UNIT   13
 
 MODFLOW was compiled using mixed precision
 Precision of REAL variables:           6
 Precision of DOUBLE PRECISION variables:          15

 DISCRETIZATION INPUT DATA READ FROM UNIT   11
 # DIS package for  MODFLOW-NWT, generated by Flopy.
    1 LAYERS       100 ROWS       100 COLUMNS
    1 STRESS PERIOD(S) IN SIMULATION
 MODEL TIME UNIT IS DAYS
 MODEL LENGTH UNIT IS METERS
  Confining bed flag for each layer:
   0

                     DELR =   50.0000    

                     DELC =   50.0000    



           TOP ELEVATION OF LAYER 1
 READING ON UNIT   11 WITH FORMAT: (100E15.6)          

   MODEL LAYER BOTTOM EL. =  -50.0000     FOR LAYER   1


 STRESS PERIOD     LENGTH       TIME STEPS     MULTIPLIER FOR DELT    SS FLAG
 ----------------------------------------------------------------------------
        1         1.000000          1                    1.000         SS

 STEADY-STATE SIMULATION



 
 # BAS6 package for  MODFLOW-NWT, generated by Flopy.                            
 THE FREE FORMAT OPTION HAS BEEN SELECTED



                     BOUNDARY ARRAY FOR LAYER   1
 READING ON UNIT   13 WITH FORMAT: (100I10)            

 AQUIFER HEAD WILL BE SET TO  -999.99     AT ALL NO-FLOW NODES (IBOUND=0).



                       INITIAL HEAD FOR LAYER   1
 READING ON UNIT   13 WITH FORMAT: (100E15.6)          
 # OC package for  MODFLOW-NWT, generated by Flopy.

 OUTPUT CONTROL IS SPECIFIED ONLY AT TIME STEPS FOR WHICH OUTPUT IS DESIRED
 COMPACT CELL-BY-CELL BUDGET FILES WILL BE WRITTEN
 AUXILIARY DATA WILL BE SAVED IN CELL-BY-CELL BUDGET FILES
 HEAD PRINT FORMAT CODE IS   0    DRAWDOWN PRINT FORMAT CODE IS   0
 HEADS WILL BE SAVED ON UNIT   51    DRAWDOWNS WILL BE SAVED ON UNIT    0
 # NWT package for  MODFLOW-NWT, generated by Flopy.

 NWT1 -- Newton Solver, VERSION 1.1.4, 4/01/2018
         INPUT READ FROM UNIT 32

 COMPLEX OPTION:
 DEFAULT SOLVER INPUT VALUES REFLECT STRONGLY NONLINEAR MODEL
 ***GMRES linear solver will be used***
 
   CONVERGENCE CRITERION OF   0.100000E-01 FOR HEAD SOLUTION
   AND A TOLERANCE OF   0.500000E+03 FOR FLOW SOLUTION AND 
   A MAXIMUM OF   100 OUTER ITERATIONS. 


   D-B-D REDUCTION FACTOR OF    0.850000E+00 AND 
   A D-B-D INCREASE FACTOR OF    0.100000E-04 AND 
   A D-B-D RELAXATION OF    0.000000E+00 AND 
   A MOMENTUM FACTOR OF    0.100000E+00 .


   BACKTRACKING IS ACTIVE 
   THE MAXIMUM NUMBER OF BACKTRACKS IS    50 AND 
   THE BACKTRACKING TOLERANCE IS    0.110000E+01 AND
   THE BACKTRACKING REDUCTION FACTOR IS    0.700000E+00

 GMRES -- LINEAR SOLUTION BY GMRES PACKAGE 
     adapted for HYDROTHERM by Kipp and others (2008)
     using software originally developed by Saad (1990) 32
     using algorithms described in Saad (2003)

 UPW1 -- UPSTREAM WEIGHTING FLOW PACKAGE, VERSION 1.1.4, 4/01/2018
         INPUT READ FROM UNIT 31

 # UPW package for  MODFLOW-NWT, generated by Flopy.
 CELL-BY-CELL FLOWS WILL BE SAVED ON UNIT   53
 No named parameters

   LAYER FLAGS:
 LAYER       LAYTYP          LAYAVG    CHANI           LAYVKA           LAYWET
 ---------------------------------------------------------------------------
    1             1             0     1.000E+00             0             0

   INTERPRETATION OF LAYER FLAGS:
                        INTERBLOCK     HORIZONTAL    DATA IN
         LAYER TYPE   TRANSMISSIVITY   ANISOTROPY   ARRAY VKA   WETTABILITY
 LAYER   (LAYTYP)        (LAYAVG)      (CHANI)     (LAYVKA)       (LAYWET)
 ---------------------------------------------------------------------------
    1   CONVERTIBLE      HARMONIC     1.000E+00    VERTICAL K  NON-WETTABLE

    HYD. COND. ALONG ROWS =   22.0000     FOR LAYER   1

      VERTICAL HYD. COND. =   1.00000     FOR LAYER   1

 DRN -- DRAIN PACKAGE, VERSION 7, 5/2/2005 INPUT READ FROM UNIT   21
 # DRN package for  MODFLOW-NWT, generated by Flopy.
 No named parameters
 MAXIMUM OF   9691 ACTIVE DRAINS AT ONE TIME
 CELL-BY-CELL FLOWS WILL BE SAVED ON UNIT   53


     0 Drain parameters

 RCH -- RECHARGE PACKAGE, VERSION 7, 5/2/2005 INPUT READ FROM UNIT   19
 # RCH package for  MODFLOW-NWT, generated by Flopy.
 No named parameters
 OPTION 3 -- RECHARGE TO HIGHEST ACTIVE NODE IN EACH VERTICAL COLUMN


     0 Recharge parameters
1
                            STRESS PERIOD NO.    1, LENGTH =   1.000000    
                            -----------------------------------------------

                              NUMBER OF TIME STEPS =     1

                               MULTIPLIER FOR DELT =     1.000

                            INITIAL TIME STEP SIZE =   1.000000    

 DRAIN NO.  LAYER   ROW   COL     DRAIN EL.  CONDUCTANCE         
 ----------------------------------------------------------------
      1      1      1      1       118.4           125.0    
      2      1      1      2       120.5           125.0    
      3      1      1      3       120.4           125.0    
      4      1      1      4       118.9           125.0    
      5      1      1      5       117.2           125.0    
      6      1      1      6       116.1           125.0    
      7      1      1      7       115.8           125.0    
      8      1      1      8       114.8           125.0    
      9      1      1      9       117.4           125.0    
     10      1      1     10       119.6           125.0    
     11      1      1     11       122.1           125.0    
     12      1      1     12       124.2           125.0    
     13      1      1     13       127.2           125.0    
     14      1      1     14       128.1           125.0    
     15      1      1     15       126.5           125.0    
     16      1      1     16       126.8           125.0    
     17      1      1     17       128.1           125.0    
     18      1      1     18       129.1           125.0    
     19      1      1     19       131.5           125.0    
     20      1      1     20       131.2           125.0    
     21      1      1     21       128.9           125.0    
     22      1      1     22       126.3           125.0    
     23      1      1     23       123.2           125.0    
     24      1      1     24       121.0           125.0    
     25      1      1     25       118.2           125.0    
     26      1      1     26       116.4           125.0    
     27      1      1     27       115.7           125.0    
     28      1      1     28       114.7           125.0    
     29      1      1     29       112.9           125.0    
     30      1      1     30       108.7           125.0    
     31      1      1     31       107.9           125.0    
     32      1      1     32       108.1           125.0    
     33      1      1     33       109.7           125.0    
     34      1      1     34       110.4           125.0    
     35      1      1     35       114.0           125.0    
     36      1      1     36       117.4           125.0    
     37      1      1     37       118.4           125.0    
     38      1      1     38       119.9           125.0    
     39      1      1     39       120.3           125.0    
     40      1      1     40       118.1           125.0    
     41      1      1     41       113.9           125.0    
     42      1      1     42       110.7           125.0    
     43      1      1     43       107.1           125.0    
     44      1      1     44       103.7           125.0    
     45      1      1     45       102.3           125.0    
     46      1      1     46       103.4           125.0    
     47      1      1     47       103.9           125.0    
     48      1      1     48       101.9           125.0    
     49      1      1     49       100.3           125.0    
     50      1      1     50       101.0           125.0    
     51      1      1     51       100.4           125.0    
     52      1      1     52       102.8           125.0    
     53      1      1     53       100.8           125.0    
     54      1      1     54       84.31           125.0    
     55      1      1     55       74.00           125.0    
     56      1      1     56       71.38           125.0    
     57      1      1     57       70.44           125.0    
     58      1      1     58       69.38           125.0    
     59      1      1     59       60.44           125.0    
     60      1      1     60       53.88           125.0    
     61      1      1     61       53.50           125.0    
     62      1      1     62       53.00           125.0    
     63      1      1     63       53.00           125.0    
     64      1      1     64       53.00           125.0    
     65      1      1     65       53.00           125.0    
     66      1      1     66       53.00           125.0    
     67      1      1     67       53.00           125.0    
     68      1      1     68       53.00           125.0    
     69      1      1     69       53.00           125.0    
     70      1      1     70       53.00           125.0    
     71      1      1     71       53.00           125.0    
     72      1      1     72       53.00           125.0    
     73      1      1     73       53.00           125.0    
     74      1      1     74       53.00           125.0    
     75      1      1     75       53.00           125.0    
     76      1      1     76       53.00           125.0    
     77      1      1     77       53.00           125.0    
     78      1      1     78       53.00           125.0    
     79      1      1     79       53.00           125.0    
     80      1      1     80       53.00           125.0    
     81      1      1     81       53.00           125.0    
     82      1      1     82       53.00           125.0    
     83      1      1     83       53.00           125.0    
     84      1      1     84       53.00           125.0    
     85      1      1     85       53.00           125.0    
     86      1      1     86       53.00           125.0    
     87      1      1     87       53.00           125.0    
     88      1      1     88       53.00           125.0    
     89      1      1     89       53.00           125.0    
     90      1      1     90       53.00           125.0    
     91      1      1     91       53.00           125.0    
     92      1      1     92       53.00           125.0    
     93      1      1     93       53.00           125.0    
     94      1      1     94       53.00           125.0    
     95      1      1     95       53.00           125.0    
     96      1      1     96       53.00           125.0    
     97      1      1     97       53.00           125.0    
     98      1      1     98       53.00           125.0    
     99      1      1     99       53.00           125.0    
    100      1      1    100       53.00           125.0    
    101      1      2      1       117.7           125.0    
    102      1      2      2       120.2           125.0    
    103      1      2      3       121.0           125.0    
    104      1      2      4       120.1           125.0    
    105      1      2      5       117.4           125.0    
    106      1      2      6       115.4           125.0    
    107      1      2      7       114.0           125.0    
    108      1      2      8       112.8           125.0    
    109      1      2      9       114.9           125.0    
    110      1      2     10       117.8           125.0    
    111      1      2     11       118.7           125.0    
    112      1      2     12       118.9           125.0    
    113      1      2     13       121.6           125.0    
    114      1      2     14       124.9           125.0    
    115      1      2     15       124.6           125.0    
    116      1      2     16       124.9           125.0    
    117      1      2     17       127.2           125.0    
    118      1      2     18       129.1           125.0    
    119      1      2     19       131.1           125.0    
    120      1      2     20       130.6           125.0    
    121      1      2     21       128.3           125.0    
    122      1      2     22       125.4           125.0    
    123      1      2     23       122.1           125.0    
    124      1      2     24       120.4           125.0    
    125      1      2     25       118.1           125.0    
    126      1      2     26       115.7           125.0    
    127      1      2     27       115.0           125.0    
    128      1      2     28       115.9           125.0    
    129      1      2     29       114.5           125.0    
    130      1      2     30       109.2           125.0    
    131      1      2     31       107.3           125.0    
    132      1      2     32       105.7           125.0    
    133      1      2     33       106.3           125.0    
    134      1      2     34       108.4           125.0    
    135      1      2     35       112.1           125.0    
    136      1      2     36       114.5           125.0    
    137      1      2     37       116.5           125.0    
    138      1      2     38       118.1           125.0    
    139      1      2     39       120.1           125.0    
    140      1      2     40       118.2           125.0    
    141      1      2     41       114.1           125.0    
    142      1      2     42       111.1           125.0    
    143      1      2     43       107.2           125.0    
    144      1      2     44       104.7           125.0    
    145      1      2     45       103.5           125.0    
    146      1      2     46       103.0           125.0    
    147      1      2     47       103.8           125.0    
    148      1      2     48       103.4           125.0    
    149      1      2     49       100.9           125.0    
    150      1      2     50       98.44           125.0    
    151      1      2     51       98.25           125.0    
    152      1      2     52       100.2           125.0    
    153      1      2     53       97.25           125.0    
    154      1      2     54       85.44           125.0    
    155      1      2     55       74.50           125.0    
    156      1      2     56       71.69           125.0    
    157      1      2     57       71.81           125.0    
    158      1      2     58       70.31           125.0    
    159      1      2     59       66.38           125.0    
    160      1      2     60       54.00           125.0    
    161      1      2     61       53.50           125.0    
    162      1      2     62       53.00           125.0    
    163      1      2     63       53.00           125.0    
    164      1      2     64       53.00           125.0    
    165      1      2     65       53.00           125.0    
    166      1      2     66       53.00           125.0    
    167      1      2     67       53.00           125.0    
    168      1      2     68       53.00           125.0    
    169      1      2     69       53.00           125.0    
    170      1      2     70       53.00           125.0    
    171      1      2     71       53.00           125.0    
    172      1      2     72       53.00           125.0    
    173      1      2     73       53.00           125.0    
    174      1      2     74       53.00           125.0    
    175      1      2     75       53.00           125.0    
    176      1      2     76       53.00           125.0    
    177      1      2     77       53.00           125.0    
    178      1      2     78       53.00           125.0    
    179      1      2     79       53.00           125.0    
    180      1      2     80       53.00           125.0    
    181      1      2     81       53.00           125.0    
    182      1      2     82       53.00           125.0    
    183      1      2     83       53.00           125.0    
    184      1      2     84       53.00           125.0    
    185      1      2     85       53.00           125.0    
    186      1      2     86       53.00           125.0    
    187      1      2     87       53.00           125.0    
    188      1      2     88       53.00           125.0    
    189      1      2     89       53.00           125.0    
    190      1      2     90       53.00           125.0    
    191      1      2     91       53.00           125.0    
    192      1      2     92       53.00           125.0    
    193      1      2     93       53.00           125.0    
    194      1      2     94       53.00           125.0    
    195      1      2     95       53.00           125.0    
    196      1      2     96       53.00           125.0    
    197      1      2     97       53.00           125.0    
    198      1      2     98       53.00           125.0    
    199      1      2     99       53.00           125.0    
    200      1      2    100       53.00           125.0    
    201      1      3      1       117.3           125.0    
    202      1      3      2       119.3           125.0    
    203      1      3      3       120.5           125.0    
    204      1      3      4       119.2           125.0    
    205      1      3      5       117.2           125.0    
    206      1      3      6       115.2           125.0    
    207      1      3      7       114.8           125.0    
    208      1      3      8       113.3           125.0    
    209      1      3      9       112.3           125.0    
    210      1      3     10       113.5           125.0    
    211      1      3     11       115.1           125.0    
    212      1      3     12       116.0           125.0    
    213      1      3     13       117.0           125.0    
    214      1      3     14       119.5           125.0    
    215      1      3     15       121.9           125.0    
    216      1      3     16       123.4           125.0    
    217      1      3     17       125.2           125.0    
    218      1      3     18       127.4           125.0    
    219      1      3     19       128.8           125.0    
    220      1      3     20       126.9           125.0    
    221      1      3     21       125.4           125.0    
    222      1      3     22       123.6           125.0    
    223      1      3     23       119.6           125.0    
    224      1      3     24       117.7           125.0    
    225      1      3     25       115.3           125.0    
    226      1      3     26       113.2           125.0    
    227      1      3     27       113.8           125.0    
    228      1      3     28       115.1           125.0    
    229      1      3     29       111.8           125.0    
    230      1      3     30       108.2           125.0    
    231      1      3     31       107.5           125.0    
    232      1      3     32       105.2           125.0    
    233      1      3     33       104.7           125.0    
    234      1      3     34       105.6           125.0    
    235      1      3     35       108.8           125.0    
    236      1      3     36       111.3           125.0    
    237      1      3     37       115.3           125.0    
    238      1      3     38       117.4           125.0    
    239      1      3     39       117.2           125.0    
    240      1      3     40       116.8           125.0    
    241      1      3     41       113.1           125.0    
    242      1      3     42       110.5           125.0    
    243      1      3     43       107.6           125.0    
    244      1      3     44       105.2           125.0    
    245      1      3     45       104.4           125.0    
    246      1      3     46       102.4           125.0    
    247      1      3     47       101.6           125.0    
    248      1      3     48       101.7           125.0    
    249      1      3     49       99.88           125.0    
    250      1      3     50       98.00           125.0    
    251      1      3     51       98.00           125.0    
    252      1      3     52       98.12           125.0    
    253      1      3     53       95.81           125.0    
    254      1      3     54       85.25           125.0    
    255      1      3     55       75.19           125.0    
    256      1      3     56       72.00           125.0    
    257      1      3     57       72.00           125.0    
    258      1      3     58       71.88           125.0    
    259      1      3     59       70.56           125.0    
    260      1      3     60       60.88           125.0    
    261      1      3     61       53.50           125.0    
    262      1      3     62       53.19           125.0    
    263      1      3     63       53.00           125.0    
    264      1      3     64       53.00           125.0    
    265      1      3     65       53.00           125.0    
    266      1      3     66       53.00           125.0    
    267      1      3     67       53.00           125.0    
    268      1      3     68       53.00           125.0    
    269      1      3     69       53.00           125.0    
    270      1      3     70       53.00           125.0    
    271      1      3     71       53.00           125.0    
    272      1      3     72       53.00           125.0    
    273      1      3     73       53.00           125.0    
    274      1      3     74       53.00           125.0    
    275      1      3     75       53.00           125.0    
    276      1      3     76       53.00           125.0    
    277      1      3     77       53.00           125.0    
    278      1      3     78       53.00           125.0    
    279      1      3     79       53.00           125.0    
    280      1      3     80       53.00           125.0    
    281      1      3     81       53.00           125.0    
    282      1      3     82       53.00           125.0    
    283      1      3     83       53.00           125.0    
    284      1      3     84       53.00           125.0    
    285      1      3     85       53.00           125.0    
    286      1      3     86       53.00           125.0    
    287      1      3     87       53.00           125.0    
    288      1      3     88       53.00           125.0    
    289      1      3     89       53.00           125.0    
    290      1      3     90       53.00           125.0    
    291      1      3     91       53.00           125.0    
    292      1      3     92       53.00           125.0    
    293      1      3     93       53.00           125.0    
    294      1      3     94       53.00           125.0    
    295      1      3     95       53.00           125.0    
    296      1      3     96       53.00           125.0    
    297      1      3     97       53.00           125.0    
    298      1      3     98       53.00           125.0    
    299      1      3     99       53.00           125.0    
    300      1      3    100       53.00           125.0    
    301      1      4      1       117.2           125.0    
    302      1      4      2       118.1           125.0    
    303      1      4      3       117.5           125.0    
    304      1      4      4       116.1           125.0    
    305      1      4      5       116.1           125.0    
    306      1      4      6       115.3           125.0    
    307      1      4      7       114.4           125.0    
    308      1      4      8       113.0           125.0    
    309      1      4      9       111.2           125.0    
    310      1      4     10       110.9           125.0    
    311      1      4     11       111.2           125.0    
    312      1      4     12       113.2           125.0    
    313      1      4     13       114.4           125.0    
    314      1      4     14       116.2           125.0    
    315      1      4     15       118.6           125.0    
    316      1      4     16       121.1           125.0    
    317      1      4     17       121.4           125.0    
    318      1      4     18       124.7           125.0    
    319      1      4     19       125.5           125.0    
    320      1      4     20       123.2           125.0    
    321      1      4     21       122.9           125.0    
    322      1      4     22       121.4           125.0    
    323      1      4     23       118.1           125.0    
    324      1      4     24       114.8           125.0    
    325      1      4     25       112.5           125.0    
    326      1      4     26       109.8           125.0    
    327      1      4     27       112.1           125.0    
    328      1      4     28       114.1           125.0    
    329      1      4     29       110.9           125.0    
    330      1      4     30       107.4           125.0    
    331      1      4     31       106.2           125.0    
    332      1      4     32       104.9           125.0    
    333      1      4     33       103.6           125.0    
    334      1      4     34       104.9           125.0    
    335      1      4     35       107.9           125.0    
    336      1      4     36       111.4           125.0    
    337      1      4     37       114.9           125.0    
    338      1      4     38       116.6           125.0    
    339      1      4     39       115.6           125.0    
    340      1      4     40       114.8           125.0    
    341      1      4     41       111.2           125.0    
    342      1      4     42       108.5           125.0    
    343      1      4     43       105.1           125.0    
    344      1      4     44       104.1           125.0    
    345      1      4     45       103.4           125.0    
    346      1      4     46       100.6           125.0    
    347      1      4     47       98.88           125.0    
    348      1      4     48       98.56           125.0    
    349      1      4     49       97.06           125.0    
    350      1      4     50       97.12           125.0    
    351      1      4     51       98.56           125.0    
    352      1      4     52       99.25           125.0    
    353      1      4     53       97.62           125.0    
    354      1      4     54       87.31           125.0    
    355      1      4     55       76.75           125.0    
    356      1      4     56       71.56           125.0    
    357      1      4     57       71.06           125.0    
    358      1      4     58       71.12           125.0    
    359      1      4     59       70.75           125.0    
    360      1      4     60       64.50           125.0    
    361      1      4     61       54.50           125.0    
    362      1      4     62       53.25           125.0    
    363      1      4     63       53.00           125.0    
    364      1      4     64       53.00           125.0    
    365      1      4     65       53.00           125.0    
    366      1      4     66       53.00           125.0    
    367      1      4     67       53.00           125.0    
    368      1      4     68       53.00           125.0    
    369      1      4     69       53.00           125.0    
    370      1      4     70       53.00           125.0    
    371      1      4     71       53.00           125.0    
    372      1      4     72       53.00           125.0    
    373      1      4     73       53.00           125.0    
    374      1      4     74       53.00           125.0    
    375      1      4     75       53.00           125.0    
    376      1      4     76       53.00           125.0    
    377      1      4     77       53.00           125.0    
    378      1      4     78       53.00           125.0    
    379      1      4     79       53.00           125.0    
    380      1      4     80       53.00           125.0    
    381      1      4     81       53.00           125.0    
    382      1      4     82       53.00           125.0    
    383      1      4     83       53.00           125.0    
    384      1      4     84       53.00           125.0    
    385      1      4     85       53.00           125.0    
    386      1      4     86       53.00           125.0    
    387      1      4     87       53.00           125.0    
    388      1      4     88       53.00           125.0    
    389      1      4     89       53.00           125.0    
    390      1      4     90       53.00           125.0    
    391      1      4     91       53.00           125.0    
    392      1      4     92       53.00           125.0    
    393      1      4     93       53.00           125.0    
    394      1      4     94       53.00           125.0    
    395      1      4     95       53.00           125.0    
    396      1      4     96       53.00           125.0    
    397      1      4     97       53.00           125.0    
    398      1      4     98       53.00           125.0    
    399      1      4     99       53.00           125.0    
    400      1      4    100       53.00           125.0    
    401      1      5      1       117.1           125.0    
    402      1      5      2       117.8           125.0    
    403      1      5      3       116.2           125.0    
    404      1      5      4       114.3           125.0    
    405      1      5      5       113.5           125.0    
    406      1      5      6       111.7           125.0    
    407      1      5      7       109.9           125.0    
    408      1      5      8       109.2           125.0    
    409      1      5      9       107.9           125.0    
    410      1      5     10       109.8           125.0    
    411      1      5     11       110.2           125.0    
    412      1      5     12       112.5           125.0    
    413      1      5     13       114.7           125.0    
    414      1      5     14       116.4           125.0    
    415      1      5     15       117.1           125.0    
    416      1      5     16       118.9           125.0    
    417      1      5     17       118.6           125.0    
    418      1      5     18       120.6           125.0    
    419      1      5     19       122.2           125.0    
    420      1      5     20       119.8           125.0    
    421      1      5     21       119.2           125.0    
    422      1      5     22       118.9           125.0    
    423      1      5     23       115.8           125.0    
    424      1      5     24       111.9           125.0    
    425      1      5     25       109.7           125.0    
    426      1      5     26       107.3           125.0    
    427      1      5     27       109.8           125.0    
    428      1      5     28       110.9           125.0    
    429      1      5     29       107.6           125.0    
    430      1      5     30       105.9           125.0    
    431      1      5     31       104.4           125.0    
    432      1      5     32       103.2           125.0    
    433      1      5     33       103.0           125.0    
    434      1      5     34       104.9           125.0    
    435      1      5     35       107.4           125.0    
    436      1      5     36       110.5           125.0    
    437      1      5     37       114.0           125.0    
    438      1      5     38       116.8           125.0    
    439      1      5     39       115.0           125.0    
    440      1      5     40       113.3           125.0    
    441      1      5     41       109.2           125.0    
    442      1      5     42       104.2           125.0    
    443      1      5     43       103.1           125.0    
    444      1      5     44       102.4           125.0    
    445      1      5     45       100.8           125.0    
    446      1      5     46       98.56           125.0    
    447      1      5     47       97.88           125.0    
    448      1      5     48       96.31           125.0    
    449      1      5     49       96.19           125.0    
    450      1      5     50       97.94           125.0    
    451      1      5     51       100.2           125.0    
    452      1      5     52       101.0           125.0    
    453      1      5     53       99.81           125.0    
    454      1      5     54       92.50           125.0    
    455      1      5     55       77.75           125.0    
    456      1      5     56       70.62           125.0    
    457      1      5     57       69.69           125.0    
    458      1      5     58       69.75           125.0    
    459      1      5     59       70.06           125.0    
    460      1      5     60       64.31           125.0    
    461      1      5     61       53.94           125.0    
    462      1      5     62       53.25           125.0    
    463      1      5     63       53.00           125.0    
    464      1      5     64       53.00           125.0    
    465      1      5     65       53.00           125.0    
    466      1      5     66       53.00           125.0    
    467      1      5     67       53.00           125.0    
    468      1      5     68       53.00           125.0    
    469      1      5     69       53.00           125.0    
    470      1      5     70       53.00           125.0    
    471      1      5     71       53.00           125.0    
    472      1      5     72       53.00           125.0    
    473      1      5     73       53.00           125.0    
    474      1      5     74       53.00           125.0    
    475      1      5     75       53.00           125.0    
    476      1      5     76       53.00           125.0    
    477      1      5     77       53.00           125.0    
    478      1      5     78       53.00           125.0    
    479      1      5     79       53.00           125.0    
    480      1      5     80       53.00           125.0    
    481      1      5     81       53.00           125.0    
    482      1      5     82       53.00           125.0    
    483      1      5     83       53.00           125.0    
    484      1      5     84       53.00           125.0    
    485      1      5     85       53.00           125.0    
    486      1      5     86       53.00           125.0    
    487      1      5     87       53.00           125.0    
    488      1      5     88       53.00           125.0    
    489      1      5     89       53.00           125.0    
    490      1      5     90       53.00           125.0    
    491      1      5     91       53.00           125.0    
    492      1      5     92       53.00           125.0    
    493      1      5     93       53.00           125.0    
    494      1      5     94       53.00           125.0    
    495      1      5     95       53.00           125.0    
    496      1      5     96       53.00           125.0    
    497      1      5     97       53.00           125.0    
    498      1      5     98       53.00           125.0    
    499      1      5     99       53.00           125.0    
    500      1      5    100       53.00           125.0    
    501      1      6      1       118.1           125.0    
    502      1      6      2       117.2           125.0    
    503      1      6      3       116.1           125.0    
    504      1      6      4       112.4           125.0    
    505      1      6      5       109.7           125.0    
    506      1      6      6       107.2           125.0    
    507      1      6      7       106.6           125.0    
    508      1      6      8       105.9           125.0    
    509      1      6      9       105.1           125.0    
    510      1      6     10       107.5           125.0    
    511      1      6     11       109.8           125.0    
    512      1      6     12       112.4           125.0    
    513      1      6     13       114.4           125.0    
    514      1      6     14       117.6           125.0    
    515      1      6     15       118.7           125.0    
    516      1      6     16       118.8           125.0    
    517      1      6     17       117.0           125.0    
    518      1      6     18       116.9           125.0    
    519      1      6     19       118.8           125.0    
    520      1      6     20       117.8           125.0    
    521      1      6     21       116.6           125.0    
    522      1      6     22       114.7           125.0    
    523      1      6     23       112.4           125.0    
    524      1      6     24       109.7           125.0    
    525      1      6     25       107.9           125.0    
    526      1      6     26       106.2           125.0    
    527      1      6     27       106.4           125.0    
    528      1      6     28       104.8           125.0    
    529      1      6     29       102.8           125.0    
    530      1      6     30       102.7           125.0    
    531      1      6     31       102.3           125.0    
    532      1      6     32       103.5           125.0    
    533      1      6     33       105.7           125.0    
    534      1      6     34       105.8           125.0    
    535      1      6     35       105.9           125.0    
    536      1      6     36       109.0           125.0    
    537      1      6     37       112.8           125.0    
    538      1      6     38       115.7           125.0    
    539      1      6     39       114.7           125.0    
    540      1      6     40       113.1           125.0    
    541      1      6     41       107.9           125.0    
    542      1      6     42       103.1           125.0    
    543      1      6     43       102.6           125.0    
    544      1      6     44       101.1           125.0    
    545      1      6     45       99.44           125.0    
    546      1      6     46       98.50           125.0    
    547      1      6     47       97.75           125.0    
    548      1      6     48       96.62           125.0    
    549      1      6     49       97.00           125.0    
    550      1      6     50       98.00           125.0    
    551      1      6     51       100.9           125.0    
    552      1      6     52       101.9           125.0    
    553      1      6     53       101.0           125.0    
    554      1      6     54       96.88           125.0    
    555      1      6     55       81.94           125.0    
    556      1      6     56       71.56           125.0    
    557      1      6     57       69.31           125.0    
    558      1      6     58       70.19           125.0    
    559      1      6     59       70.44           125.0    
    560      1      6     60       65.31           125.0    
    561      1      6     61       54.06           125.0    
    562      1      6     62       53.25           125.0    
    563      1      6     63       53.00           125.0    
    564      1      6     64       53.00           125.0    
    565      1      6     65       53.00           125.0    
    566      1      6     66       53.00           125.0    
    567      1      6     67       53.00           125.0    
    568      1      6     68       53.00           125.0    
    569      1      6     69       53.00           125.0    
    570      1      6     70       53.00           125.0    
    571      1      6     71       53.00           125.0    
    572      1      6     72       53.00           125.0    
    573      1      6     73       53.00           125.0    
    574      1      6     74       53.00           125.0    
    575      1      6     75       53.00           125.0    
    576      1      6     76       53.00           125.0    
    577      1      6     77       53.00           125.0    
    578      1      6     78       53.00           125.0    
    579      1      6     79       53.00           125.0    
    580      1      6     80       53.00           125.0    
    581      1      6     81       53.00           125.0    
    582      1      6     82       53.00           125.0    
    583      1      6     83       53.00           125.0    
    584      1      6     84       53.00           125.0    
    585      1      6     85       53.00           125.0    
    586      1      6     86       53.00           125.0    
    587      1      6     87       53.00           125.0    
    588      1      6     88       53.00           125.0    
    589      1      6     89       53.00           125.0    
    590      1      6     90       53.00           125.0    
    591      1      6     91       53.00           125.0    
    592      1      6     92       53.00           125.0    
    593      1      6     93       53.00           125.0    
    594      1      6     94       53.00           125.0    
    595      1      6     95       53.00           125.0    
    596      1      6     96       53.00           125.0    
    597      1      6     97       53.00           125.0    
    598      1      6     98       53.00           125.0    
    599      1      6     99       53.00           125.0    
    600      1      6    100       53.00           125.0    
    601      1      7      1       113.8           125.0    
    602      1      7      2       112.5           125.0    
    603      1      7      3       111.6           125.0    
    604      1      7      4       109.7           125.0    
    605      1      7      5       106.9           125.0    
    606      1      7      6       104.6           125.0    
    607      1      7      7       103.1           125.0    
    608      1      7      8       103.2           125.0    
    609      1      7      9       103.5           125.0    
    610      1      7     10       104.5           125.0    
    611      1      7     11       107.4           125.0    
    612      1      7     12       110.3           125.0    
    613      1      7     13       112.4           125.0    
    614      1      7     14       116.4           125.0    
    615      1      7     15       118.6           125.0    
    616      1      7     16       117.7           125.0    
    617      1      7     17       115.6           125.0    
    618      1      7     18       114.5           125.0    
    619      1      7     19       115.6           125.0    
    620      1      7     20       114.5           125.0    
    621      1      7     21       114.5           125.0    
    622      1      7     22       112.8           125.0    
    623      1      7     23       110.8           125.0    
    624      1      7     24       107.9           125.0    
    625      1      7     25       105.0           125.0    
    626      1      7     26       104.8           125.0    
    627      1      7     27       105.2           125.0    
    628      1      7     28       102.1           125.0    
    629      1      7     29       100.0           125.0    
    630      1      7     30       100.8           125.0    
    631      1      7     31       102.0           125.0    
    632      1      7     32       106.5           125.0    
    633      1      7     33       110.1           125.0    
    634      1      7     34       108.6           125.0    
    635      1      7     35       106.2           125.0    
    636      1      7     36       109.0           125.0    
    637      1      7     37       111.8           125.0    
    638      1      7     38       114.1           125.0    
    639      1      7     39       112.9           125.0    
    640      1      7     40       110.7           125.0    
    641      1      7     41       107.4           125.0    
    642      1      7     42       103.2           125.0    
    643      1      7     43       102.0           125.0    
    644      1      7     44       100.4           125.0    
    645      1      7     45       99.06           125.0    
    646      1      7     46       98.94           125.0    
    647      1      7     47       97.88           125.0    
    648      1      7     48       97.44           125.0    
    649      1      7     49       97.12           125.0    
    650      1      7     50       98.19           125.0    
    651      1      7     51       102.0           125.0    
    652      1      7     52       102.9           125.0    
    653      1      7     53       102.2           125.0    
    654      1      7     54       100.0           125.0    
    655      1      7     55       87.88           125.0    
    656      1      7     56       74.56           125.0    
    657      1      7     57       71.06           125.0    
    658      1      7     58       71.50           125.0    
    659      1      7     59       72.62           125.0    
    660      1      7     60       66.94           125.0    
    661      1      7     61       56.12           125.0    
    662      1      7     62       53.19           125.0    
    663      1      7     63       53.00           125.0    
    664      1      7     64       53.00           125.0    
    665      1      7     65       53.00           125.0    
    666      1      7     66       53.00           125.0    
    667      1      7     67       53.00           125.0    
    668      1      7     68       53.00           125.0    
    669      1      7     69       53.00           125.0    
    670      1      7     70       53.00           125.0    
    671      1      7     71       53.00           125.0    
    672      1      7     72       53.00           125.0    
    673      1      7     73       53.00           125.0    
    674      1      7     74       53.00           125.0    
    675      1      7     75       53.00           125.0    
    676      1      7     76       53.00           125.0    
    677      1      7     77       53.00           125.0    
    678      1      7     78       53.00           125.0    
    679      1      7     79       53.00           125.0    
    680      1      7     80       53.00           125.0    
    681      1      7     81       53.00           125.0    
    682      1      7     82       53.00           125.0    
    683      1      7     83       53.00           125.0    
    684      1      7     84       53.00           125.0    
    685      1      7     85       53.00           125.0    
    686      1      7     86       53.00           125.0    
    687      1      7     87       53.00           125.0    
    688      1      7     88       53.00           125.0    
    689      1      7     89       53.00           125.0    
    690      1      7     90       53.00           125.0    
    691      1      7     91       53.00           125.0    
    692      1      7     92       53.00           125.0    
    693      1      7     93       53.00           125.0    
    694      1      7     94       53.00           125.0    
    695      1      7     95       53.00           125.0    
    696      1      7     96       53.00           125.0    
    697      1      7     97       53.00           125.0    
    698      1      7     98       53.00           125.0    
    699      1      7     99       53.00           125.0    
    700      1      7    100       53.00           125.0    
    701      1      8      1       106.3           125.0    
    702      1      8      2       105.4           125.0    
    703      1      8      3       105.3           125.0    
    704      1      8      4       105.9           125.0    
    705      1      8      5       104.1           125.0    
    706      1      8      6       102.2           125.0    
    707      1      8      7       101.1           125.0    
    708      1      8      8       100.9           125.0    
    709      1      8      9       102.2           125.0    
    710      1      8     10       102.2           125.0    
    711      1      8     11       102.0           125.0    
    712      1      8     12       104.8           125.0    
    713      1      8     13       108.8           125.0    
    714      1      8     14       112.7           125.0    
    715      1      8     15       114.9           125.0    
    716      1      8     16       114.8           125.0    
    717      1      8     17       114.5           125.0    
    718      1      8     18       112.8           125.0    
    719      1      8     19       112.0           125.0    
    720      1      8     20       111.9           125.0    
    721      1      8     21       112.2           125.0    
    722      1      8     22       111.4           125.0    
    723      1      8     23       109.1           125.0    
    724      1      8     24       106.6           125.0    
    725      1      8     25       104.5           125.0    
    726      1      8     26       103.5           125.0    
    727      1      8     27       103.2           125.0    
    728      1      8     28       102.0           125.0    
    729      1      8     29       101.2           125.0    
    730      1      8     30       101.7           125.0    
    731      1      8     31       103.2           125.0    
    732      1      8     32       105.4           125.0    
    733      1      8     33       106.2           125.0    
    734      1      8     34       105.6           125.0    
    735      1      8     35       105.2           125.0    
    736      1      8     36       107.8           125.0    
    737      1      8     37       110.7           125.0    
    738      1      8     38       112.8           125.0    
    739      1      8     39       111.2           125.0    
    740      1      8     40       108.9           125.0    
    741      1      8     41       106.7           125.0    
    742      1      8     42       102.5           125.0    
    743      1      8     43       102.2           125.0    
    744      1      8     44       101.6           125.0    
    745      1      8     45       100.8           125.0    
    746      1      8     46       100.0           125.0    
    747      1      8     47       98.06           125.0    
    748      1      8     48       99.06           125.0    
    749      1      8     49       99.81           125.0    
    750      1      8     50       100.9           125.0    
    751      1      8     51       103.2           125.0    
    752      1      8     52       105.2           125.0    
    753      1      8     53       105.0           125.0    
    754      1      8     54       102.6           125.0    
    755      1      8     55       94.56           125.0    
    756      1      8     56       78.44           125.0    
    757      1      8     57       71.50           125.0    
    758      1      8     58       70.88           125.0    
    759      1      8     59       71.69           125.0    
    760      1      8     60       67.50           125.0    
    761      1      8     61       60.25           125.0    
    762      1      8     62       54.25           125.0    
    763      1      8     63       53.00           125.0    
    764      1      8     64       53.00           125.0    
    765      1      8     65       53.00           125.0    
    766      1      8     66       53.00           125.0    
    767      1      8     67       53.00           125.0    
    768      1      8     68       53.00           125.0    
    769      1      8     69       53.00           125.0    
    770      1      8     70       53.00           125.0    
    771      1      8     71       53.00           125.0    
    772      1      8     72       53.00           125.0    
    773      1      8     73       53.00           125.0    
    774      1      8     74       53.00           125.0    
    775      1      8     75       53.00           125.0    
    776      1      8     76       53.00           125.0    
    777      1      8     77       53.00           125.0    
    778      1      8     78       53.00           125.0    
    779      1      8     79       53.00           125.0    
    780      1      8     80       53.00           125.0    
    781      1      8     81       53.00           125.0    
    782      1      8     82       53.00           125.0    
    783      1      8     83       53.00           125.0    
    784      1      8     84       53.00           125.0    
    785      1      8     85       53.00           125.0    
    786      1      8     86       53.00           125.0    
    787      1      8     87       53.00           125.0    
    788      1      8     88       53.00           125.0    
    789      1      8     89       53.00           125.0    
    790      1      8     90       53.00           125.0    
    791      1      8     91       53.00           125.0    
    792      1      8     92       53.00           125.0    
    793      1      8     93       53.00           125.0    
    794      1      8     94       53.00           125.0    
    795      1      8     95       53.00           125.0    
    796      1      8     96       53.00           125.0    
    797      1      8     97       53.00           125.0    
    798      1      8     98       53.00           125.0    
    799      1      8     99       53.00           125.0    
    800      1      8    100       53.00           125.0    
    801      1      9      1       102.4           125.0    
    802      1      9      2       101.5           125.0    
    803      1      9      3       100.8           125.0    
    804      1      9      4       101.1           125.0    
    805      1      9      5       100.8           125.0    
    806      1      9      6       99.38           125.0    
    807      1      9      7       99.75           125.0    
    808      1      9      8       101.5           125.0    
    809      1      9      9       101.3           125.0    
    810      1      9     10       100.6           125.0    
    811      1      9     11       100.2           125.0    
    812      1      9     12       100.9           125.0    
    813      1      9     13       103.2           125.0    
    814      1      9     14       105.7           125.0    
    815      1      9     15       108.2           125.0    
    816      1      9     16       110.4           125.0    
    817      1      9     17       111.5           125.0    
    818      1      9     18       109.7           125.0    
    819      1      9     19       108.8           125.0    
    820      1      9     20       109.1           125.0    
    821      1      9     21       108.2           125.0    
    822      1      9     22       107.5           125.0    
    823      1      9     23       106.3           125.0    
    824      1      9     24       105.1           125.0    
    825      1      9     25       103.2           125.0    
    826      1      9     26       102.0           125.0    
    827      1      9     27       102.4           125.0    
    828      1      9     28       102.1           125.0    
    829      1      9     29       101.3           125.0    
    830      1      9     30       104.2           125.0    
    831      1      9     31       105.6           125.0    
    832      1      9     32       105.4           125.0    
    833      1      9     33       104.8           125.0    
    834      1      9     34       104.1           125.0    
    835      1      9     35       105.5           125.0    
    836      1      9     36       108.9           125.0    
    837      1      9     37       109.6           125.0    
    838      1      9     38       110.9           125.0    
    839      1      9     39       109.4           125.0    
    840      1      9     40       106.7           125.0    
    841      1      9     41       104.7           125.0    
    842      1      9     42       103.0           125.0    
    843      1      9     43       103.2           125.0    
    844      1      9     44       101.8           125.0    
    845      1      9     45       101.9           125.0    
    846      1      9     46       101.0           125.0    
    847      1      9     47       100.2           125.0    
    848      1      9     48       100.4           125.0    
    849      1      9     49       101.4           125.0    
    850      1      9     50       101.7           125.0    
    851      1      9     51       103.6           125.0    
    852      1      9     52       106.4           125.0    
    853      1      9     53       106.9           125.0    
    854      1      9     54       105.2           125.0    
    855      1      9     55       99.44           125.0    
    856      1      9     56       82.25           125.0    
    857      1      9     57       70.31           125.0    
    858      1      9     58       69.31           125.0    
    859      1      9     59       70.62           125.0    
    860      1      9     60       68.25           125.0    
    861      1      9     61       61.38           125.0    
    862      1      9     62       54.31           125.0    
    863      1      9     63       53.00           125.0    
    864      1      9     64       53.00           125.0    
    865      1      9     65       53.00           125.0    
    866      1      9     66       53.00           125.0    
    867      1      9     67       53.00           125.0    
    868      1      9     68       53.00           125.0    
    869      1      9     69       53.00           125.0    
    870      1      9     70       53.00           125.0    
    871      1      9     71       53.00           125.0    
    872      1      9     72       53.00           125.0    
    873      1      9     73       53.00           125.0    
    874      1      9     74       53.00           125.0    
    875      1      9     75       53.00           125.0    
    876      1      9     76       53.00           125.0    
    877      1      9     77       53.00           125.0    
    878      1      9     78       53.00           125.0    
    879      1      9     79       53.00           125.0    
    880      1      9     80       53.00           125.0    
    881      1      9     81       53.00           125.0    
    882      1      9     82       53.00           125.0    
    883      1      9     83       53.00           125.0    
    884      1      9     84       53.00           125.0    
    885      1      9     85       53.00           125.0    
    886      1      9     86       53.00           125.0    
    887      1      9     87       53.00           125.0    
    888      1      9     88       53.00           125.0    
    889      1      9     89       53.00           125.0    
    890      1      9     90       53.00           125.0    
    891      1      9     91       53.00           125.0    
    892      1      9     92       53.00           125.0    
    893      1      9     93       53.00           125.0    
    894      1      9     94       53.00           125.0    
    895      1      9     95       53.00           125.0    
    896      1      9     96       53.00           125.0    
    897      1      9     97       53.00           125.0    
    898      1      9     98       53.00           125.0    
    899      1      9     99       53.00           125.0    
    900      1      9    100       53.00           125.0    
    901      1     10      1       101.6           125.0    
    902      1     10      2       100.8           125.0    
    903      1     10      3       99.44           125.0    
    904      1     10      4       98.44           125.0    
    905      1     10      5       99.00           125.0    
    906      1     10      6       99.00           125.0    
    907      1     10      7       100.0           125.0    
    908      1     10      8       100.1           125.0    
    909      1     10      9       100.2           125.0    
    910      1     10     10       99.69           125.0    
    911      1     10     11       98.88           125.0    
    912      1     10     12       100.5           125.0    
    913      1     10     13       101.6           125.0    
    914      1     10     14       101.8           125.0    
    915      1     10     15       102.0           125.0    
    916      1     10     16       105.1           125.0    
    917      1     10     17       106.6           125.0    
    918      1     10     18       106.0           125.0    
    919      1     10     19       106.1           125.0    
    920      1     10     20       104.6           125.0    
    921      1     10     21       102.9           125.0    
    922      1     10     22       101.6           125.0    
    923      1     10     23       102.2           125.0    
    924      1     10     24       102.0           125.0    
    925      1     10     25       101.7           125.0    
    926      1     10     26       101.2           125.0    
    927      1     10     27       101.5           125.0    
    928      1     10     28       101.9           125.0    
    929      1     10     29       101.4           125.0    
    930      1     10     30       106.6           125.0    
    931      1     10     31       108.4           125.0    
    932      1     10     32       106.4           125.0    
    933      1     10     33       106.3           125.0    
    934      1     10     34       104.9           125.0    
    935      1     10     35       106.4           125.0    
    936      1     10     36       110.2           125.0    
    937      1     10     37       110.3           125.0    
    938      1     10     38       109.2           125.0    
    939      1     10     39       106.3           125.0    
    940      1     10     40       101.8           125.0    
    941      1     10     41       100.3           125.0    
    942      1     10     42       100.4           125.0    
    943      1     10     43       100.0           125.0    
    944      1     10     44       99.56           125.0    
    945      1     10     45       100.8           125.0    
    946      1     10     46       101.3           125.0    
    947      1     10     47       101.5           125.0    
    948      1     10     48       100.1           125.0    
    949      1     10     49       100.6           125.0    
    950      1     10     50       101.0           125.0    
    951      1     10     51       101.5           125.0    
    952      1     10     52       105.3           125.0    
    953      1     10     53       106.0           125.0    
    954      1     10     54       104.4           125.0    
    955      1     10     55       101.0           125.0    
    956      1     10     56       84.25           125.0    
    957      1     10     57       70.38           125.0    
    958      1     10     58       68.44           125.0    
    959      1     10     59       69.12           125.0    
    960      1     10     60       67.44           125.0    
    961      1     10     61       61.94           125.0    
    962      1     10     62       54.12           125.0    
    963      1     10     63       53.00           125.0    
    964      1     10     64       53.00           125.0    
    965      1     10     65       53.00           125.0    
    966      1     10     66       53.00           125.0    
    967      1     10     67       53.00           125.0    
    968      1     10     68       53.00           125.0    
    969      1     10     69       53.00           125.0    
    970      1     10     70       53.00           125.0    
    971      1     10     71       53.00           125.0    
    972      1     10     72       53.00           125.0    
    973      1     10     73       53.00           125.0    
    974      1     10     74       53.00           125.0    
    975      1     10     75       53.00           125.0    
    976      1     10     76       53.00           125.0    
    977      1     10     77       53.00           125.0    
    978      1     10     78       53.00           125.0    
    979      1     10     79       53.00           125.0    
    980      1     10     80       53.00           125.0    
    981      1     10     81       53.00           125.0    
    982      1     10     82       53.00           125.0    
    983      1     10     83       53.00           125.0    
    984      1     10     84       53.00           125.0    
    985      1     10     85       53.00           125.0    
    986      1     10     86       53.00           125.0    
    987      1     10     87       53.00           125.0    
    988      1     10     88       53.00           125.0    
    989      1     10     89       53.00           125.0    
    990      1     10     90       53.00           125.0    
    991      1     10     91       53.00           125.0    
    992      1     10     92       53.00           125.0    
    993      1     10     93       53.00           125.0    
    994      1     10     94       53.00           125.0    
    995      1     10     95       53.00           125.0    
    996      1     10     96       53.00           125.0    
    997      1     10     97       53.00           125.0    
    998      1     10     98       53.00           125.0    
    999      1     10     99       53.00           125.0    
   1000      1     10    100       53.00           125.0    
   1001      1     11      1       101.0           125.0    
   1002      1     11      2       100.7           125.0    
   1003      1     11      3       98.81           125.0    
   1004      1     11      4       98.31           125.0    
   1005      1     11      5       99.00           125.0    
   1006      1     11      6       99.00           125.0    
   1007      1     11      7       99.25           125.0    
   1008      1     11      8       99.12           125.0    
   1009      1     11      9       100.0           125.0    
   1010      1     11     10       98.81           125.0    
   1011      1     11     11       98.56           125.0    
   1012      1     11     12       100.5           125.0    
   1013      1     11     13       101.6           125.0    
   1014      1     11     14       100.6           125.0    
   1015      1     11     15       99.94           125.0    
   1016      1     11     16       102.7           125.0    
   1017      1     11     17       103.6           125.0    
   1018      1     11     18       104.5           125.0    
   1019      1     11     19       103.4           125.0    
   1020      1     11     20       100.9           125.0    
   1021      1     11     21       99.56           125.0    
   1022      1     11     22       100.2           125.0    
   1023      1     11     23       102.1           125.0    
   1024      1     11     24       101.9           125.0    
   1025      1     11     25       102.0           125.0    
   1026      1     11     26       100.8           125.0    
   1027      1     11     27       100.8           125.0    
   1028      1     11     28       101.8           125.0    
   1029      1     11     29       101.3           125.0    
   1030      1     11     30       105.1           125.0    
   1031      1     11     31       106.3           125.0    
   1032      1     11     32       105.7           125.0    
   1033      1     11     33       106.0           125.0    
   1034      1     11     34       106.8           125.0    
   1035      1     11     35       109.1           125.0    
   1036      1     11     36       111.0           125.0    
   1037      1     11     37       110.2           125.0    
   1038      1     11     38       110.1           125.0    
   1039      1     11     39       106.7           125.0    
   1040      1     11     40       100.6           125.0    
   1041      1     11     41       98.12           125.0    
   1042      1     11     42       97.50           125.0    
   1043      1     11     43       96.88           125.0    
   1044      1     11     44       98.88           125.0    
   1045      1     11     45       100.2           125.0    
   1046      1     11     46       100.9           125.0    
   1047      1     11     47       101.3           125.0    
   1048      1     11     48       99.69           125.0    
   1049      1     11     49       102.1           125.0    
   1050      1     11     50       102.4           125.0    
   1051      1     11     51       100.2           125.0    
   1052      1     11     52       102.8           125.0    
   1053      1     11     53       105.4           125.0    
   1054      1     11     54       105.8           125.0    
   1055      1     11     55       102.9           125.0    
   1056      1     11     56       87.25           125.0    
   1057      1     11     57       71.00           125.0    
   1058      1     11     58       68.00           125.0    
   1059      1     11     59       68.75           125.0    
   1060      1     11     60       68.81           125.0    
   1061      1     11     61       63.25           125.0    
   1062      1     11     62       54.19           125.0    
   1063      1     11     63       53.00           125.0    
   1064      1     11     64       53.00           125.0    
   1065      1     11     65       53.00           125.0    
   1066      1     11     66       53.00           125.0    
   1067      1     11     67       53.00           125.0    
   1068      1     11     68       53.00           125.0    
   1069      1     11     69       53.00           125.0    
   1070      1     11     70       53.00           125.0    
   1071      1     11     71       53.00           125.0    
   1072      1     11     72       53.00           125.0    
   1073      1     11     73       53.00           125.0    
   1074      1     11     74       53.00           125.0    
   1075      1     11     75       53.00           125.0    
   1076      1     11     76       53.00           125.0    
   1077      1     11     77       53.00           125.0    
   1078      1     11     78       53.00           125.0    
   1079      1     11     79       53.00           125.0    
   1080      1     11     80       53.00           125.0    
   1081      1     11     81       53.00           125.0    
   1082      1     11     82       53.00           125.0    
   1083      1     11     83       53.00           125.0    
   1084      1     11     84       53.00           125.0    
   1085      1     11     85       53.00           125.0    
   1086      1     11     86       53.00           125.0    
   1087      1     11     87       53.00           125.0    
   1088      1     11     88       53.00           125.0    
   1089      1     11     89       53.00           125.0    
   1090      1     11     90       53.00           125.0    
   1091      1     11     91       53.00           125.0    
   1092      1     11     92       53.00           125.0    
   1093      1     11     93       53.00           125.0    
   1094      1     11     94       53.00           125.0    
   1095      1     11     95       53.00           125.0    
   1096      1     11     96       53.00           125.0    
   1097      1     11     97       53.00           125.0    
   1098      1     11     98       53.00           125.0    
   1099      1     11     99       53.00           125.0    
   1100      1     11    100       53.00           125.0    
   1101      1     12      1       99.69           125.0    
   1102      1     12      2       100.0           125.0    
   1103      1     12      3       99.50           125.0    
   1104      1     12      4       99.31           125.0    
   1105      1     12      5       99.94           125.0    
   1106      1     12      6       99.25           125.0    
   1107      1     12      7       100.2           125.0    
   1108      1     12      8       100.5           125.0    
   1109      1     12      9       99.62           125.0    
   1110      1     12     10       98.75           125.0    
   1111      1     12     11       98.88           125.0    
   1112      1     12     12       99.94           125.0    
   1113      1     12     13       100.6           125.0    
   1114      1     12     14       99.31           125.0    
   1115      1     12     15       99.69           125.0    
   1116      1     12     16       100.3           125.0    
   1117      1     12     17       101.7           125.0    
   1118      1     12     18       102.2           125.0    
   1119      1     12     19       102.5           125.0    
   1120      1     12     20       100.4           125.0    
   1121      1     12     21       98.88           125.0    
   1122      1     12     22       100.4           125.0    
   1123      1     12     23       103.4           125.0    
   1124      1     12     24       103.9           125.0    
   1125      1     12     25       102.7           125.0    
   1126      1     12     26       99.81           125.0    
   1127      1     12     27       100.1           125.0    
   1128      1     12     28       101.0           125.0    
   1129      1     12     29       102.8           125.0    
   1130      1     12     30       104.2           125.0    
   1131      1     12     31       104.5           125.0    
   1132      1     12     32       105.7           125.0    
   1133      1     12     33       106.2           125.0    
   1134      1     12     34       110.2           125.0    
   1135      1     12     35       113.1           125.0    
   1136      1     12     36       112.0           125.0    
   1137      1     12     37       111.2           125.0    
   1138      1     12     38       110.1           125.0    
   1139      1     12     39       107.1           125.0    
   1140      1     12     40       102.6           125.0    
   1141      1     12     41       99.00           125.0    
   1142      1     12     42       97.56           125.0    
   1143      1     12     43       97.00           125.0    
   1144      1     12     44       99.12           125.0    
   1145      1     12     45       100.0           125.0    
   1146      1     12     46       99.31           125.0    
   1147      1     12     47       98.75           125.0    
   1148      1     12     48       98.94           125.0    
   1149      1     12     49       102.4           125.0    
   1150      1     12     50       103.1           125.0    
   1151      1     12     51       100.2           125.0    
   1152      1     12     52       103.2           125.0    
   1153      1     12     53       106.0           125.0    
   1154      1     12     54       105.2           125.0    
   1155      1     12     55       101.4           125.0    
   1156      1     12     56       87.56           125.0    
   1157      1     12     57       72.25           125.0    
   1158      1     12     58       67.62           125.0    
   1159      1     12     59       68.81           125.0    
   1160      1     12     60       68.38           125.0    
   1161      1     12     61       66.50           125.0    
   1162      1     12     62       54.69           125.0    
   1163      1     12     63       53.00           125.0    
   1164      1     12     64       53.00           125.0    
   1165      1     12     65       53.00           125.0    
   1166      1     12     66       53.00           125.0    
   1167      1     12     67       53.00           125.0    
   1168      1     12     68       53.00           125.0    
   1169      1     12     69       53.00           125.0    
   1170      1     12     70       53.00           125.0    
   1171      1     12     71       53.00           125.0    
   1172      1     12     72       53.00           125.0    
   1173      1     12     73       53.00           125.0    
   1174      1     12     74       53.00           125.0    
   1175      1     12     75       53.00           125.0    
   1176      1     12     76       53.00           125.0    
   1177      1     12     77       53.00           125.0    
   1178      1     12     78       53.00           125.0    
   1179      1     12     79       53.00           125.0    
   1180      1     12     80       53.00           125.0    
   1181      1     12     81       53.00           125.0    
   1182      1     12     82       53.00           125.0    
   1183      1     12     83       53.00           125.0    
   1184      1     12     84       53.00           125.0    
   1185      1     12     85       53.00           125.0    
   1186      1     12     86       53.00           125.0    
[...]
   9417      1     98     26       62.75           125.0    
   9418      1     98     27       65.75           125.0    
   9419      1     98     28       75.06           125.0    
   9420      1     98     29       84.56           125.0    
   9421      1     98     30       96.12           125.0    
   9422      1     98     31       108.2           125.0    
   9423      1     98     32       113.8           125.0    
   9424      1     98     33       117.9           125.0    
   9425      1     98     34       117.4           125.0    
   9426      1     98     35       116.5           125.0    
   9427      1     98     36       114.2           125.0    
   9428      1     98     37       107.2           125.0    
   9429      1     98     38       104.4           125.0    
   9430      1     98     39       104.1           125.0    
   9431      1     98     40       103.5           125.0    
   9432      1     98     41       103.4           125.0    
   9433      1     98     42       103.9           125.0    
   9434      1     98     43       106.5           125.0    
   9435      1     98     44       108.3           125.0    
   9436      1     98     45       107.8           125.0    
   9437      1     98     46       106.2           125.0    
   9438      1     98     47       101.4           125.0    
   9439      1     98     48       95.31           125.0    
   9440      1     98     49       91.06           125.0    
   9441      1     98     50       88.62           125.0    
   9442      1     98     51       85.81           125.0    
   9443      1     98     52       81.19           125.0    
   9444      1     98     53       76.31           125.0    
   9445      1     98     54       75.19           125.0    
   9446      1     98     55       73.81           125.0    
   9447      1     98     56       71.38           125.0    
   9448      1     98     57       69.00           125.0    
   9449      1     98     58       68.12           125.0    
   9450      1     98     59       68.44           125.0    
   9451      1     98     60       70.69           125.0    
   9452      1     98     61       70.50           125.0    
   9453      1     98     62       71.81           125.0    
   9454      1     98     63       72.25           125.0    
   9455      1     98     64       72.69           125.0    
   9456      1     98     65       72.94           125.0    
   9457      1     98     66       73.94           125.0    
   9458      1     98     67       76.94           125.0    
   9459      1     98     68       78.50           125.0    
   9460      1     98     69       81.12           125.0    
   9461      1     98     70       87.44           125.0    
   9462      1     98     71       92.38           125.0    
   9463      1     98     72       95.25           125.0    
   9464      1     98     73       99.56           125.0    
   9465      1     98     74       98.00           125.0    
   9466      1     98     75       91.75           125.0    
   9467      1     98     76       89.31           125.0    
   9468      1     98     77       87.44           125.0    
   9469      1     98     78       86.00           125.0    
   9470      1     98     79       86.00           125.0    
   9471      1     98     80       85.50           125.0    
   9472      1     98     81       84.19           125.0    
   9473      1     98     82       85.50           125.0    
   9474      1     98     83       88.12           125.0    
   9475      1     98     84       87.62           125.0    
   9476      1     98     85       88.38           125.0    
   9477      1     98     86       92.81           125.0    
   9478      1     98     87       97.25           125.0    
   9479      1     98     88       102.2           125.0    
   9480      1     98     89       107.1           125.0    
   9481      1     98     90       104.0           125.0    
   9482      1     98     91       101.8           125.0    
   9483      1     98     92       99.31           125.0    
   9484      1     98     93       96.19           125.0    
   9485      1     98     94       89.88           125.0    
   9486      1     98     95       75.94           125.0    
   9487      1     98     96       67.25           125.0    
   9488      1     98     97       63.81           125.0    
   9489      1     98     98       65.75           125.0    
   9490      1     98     99       68.56           125.0    
   9491      1     98    100       70.12           125.0    
   9492      1     99      1       49.50           125.0    
   9493      1     99      2       50.75           125.0    
   9494      1     99      3       51.19           125.0    
   9495      1     99      4       51.62           125.0    
   9496      1     99      5       52.75           125.0    
   9497      1     99      6       52.62           125.0    
   9498      1     99      7       51.81           125.0    
   9499      1     99      8       51.12           125.0    
   9500      1     99      9       51.56           125.0    
   9501      1     99     10       52.31           125.0    
   9502      1     99     11       52.88           125.0    
   9503      1     99     12       51.69           125.0    
   9504      1     99     13       50.56           125.0    
   9505      1     99     14       52.19           125.0    
   9506      1     99     15       52.69           125.0    
   9507      1     99     16       52.94           125.0    
   9508      1     99     17       52.44           125.0    
   9509      1     99     18       52.25           125.0    
   9510      1     99     19       52.25           125.0    
   9511      1     99     20       52.06           125.0    
   9512      1     99     21       53.94           125.0    
   9513      1     99     22       55.56           125.0    
   9514      1     99     23       59.62           125.0    
   9515      1     99     24       63.62           125.0    
   9516      1     99     25       70.31           125.0    
   9517      1     99     26       77.25           125.0    
   9518      1     99     27       91.06           125.0    
   9519      1     99     28       103.0           125.0    
   9520      1     99     29       108.7           125.0    
   9521      1     99     30       111.4           125.0    
   9522      1     99     31       114.8           125.0    
   9523      1     99     32       115.6           125.0    
   9524      1     99     33       116.0           125.0    
   9525      1     99     34       112.9           125.0    
   9526      1     99     35       111.8           125.0    
   9527      1     99     36       106.4           125.0    
   9528      1     99     37       100.2           125.0    
   9529      1     99     38       98.81           125.0    
   9530      1     99     39       99.88           125.0    
   9531      1     99     40       99.50           125.0    
   9532      1     99     41       100.6           125.0    
   9533      1     99     42       103.1           125.0    
   9534      1     99     43       106.6           125.0    
   9535      1     99     44       108.3           125.0    
   9536      1     99     45       108.0           125.0    
   9537      1     99     46       106.8           125.0    
   9538      1     99     47       101.6           125.0    
   9539      1     99     48       95.31           125.0    
   9540      1     99     49       89.69           125.0    
   9541      1     99     50       86.00           125.0    
   9542      1     99     51       83.25           125.0    
   9543      1     99     52       81.38           125.0    
   9544      1     99     53       77.38           125.0    
   9545      1     99     54       75.31           125.0    
   9546      1     99     55       72.81           125.0    
   9547      1     99     56       71.00           125.0    
   9548      1     99     57       69.25           125.0    
   9549      1     99     58       69.00           125.0    
   9550      1     99     59       70.19           125.0    
   9551      1     99     60       72.00           125.0    
   9552      1     99     61       73.19           125.0    
   9553      1     99     62       73.75           125.0    
   9554      1     99     63       73.25           125.0    
   9555      1     99     64       73.88           125.0    
   9556      1     99     65       75.94           125.0    
   9557      1     99     66       76.12           125.0    
   9558      1     99     67       77.69           125.0    
   9559      1     99     68       80.06           125.0    
   9560      1     99     69       87.56           125.0    
   9561      1     99     70       95.88           125.0    
   9562      1     99     71       98.00           125.0    
   9563      1     99     72       99.88           125.0    
   9564      1     99     73       100.5           125.0    
   9565      1     99     74       96.19           125.0    
   9566      1     99     75       89.81           125.0    
   9567      1     99     76       87.62           125.0    
   9568      1     99     77       87.00           125.0    
   9569      1     99     78       86.12           125.0    
   9570      1     99     79       85.06           125.0    
   9571      1     99     80       84.56           125.0    
   9572      1     99     81       84.69           125.0    
   9573      1     99     82       86.81           125.0    
   9574      1     99     83       89.38           125.0    
   9575      1     99     84       89.81           125.0    
   9576      1     99     85       91.12           125.0    
   9577      1     99     86       95.56           125.0    
   9578      1     99     87       102.2           125.0    
   9579      1     99     88       107.1           125.0    
   9580      1     99     89       109.8           125.0    
   9581      1     99     90       108.2           125.0    
   9582      1     99     91       103.8           125.0    
   9583      1     99     92       100.8           125.0    
   9584      1     99     93       99.75           125.0    
   9585      1     99     94       95.50           125.0    
   9586      1     99     95       85.69           125.0    
   9587      1     99     96       72.25           125.0    
   9588      1     99     97       65.06           125.0    
   9589      1     99     98       63.88           125.0    
   9590      1     99     99       66.31           125.0    
   9591      1     99    100       70.19           125.0    
   9592      1    100      1       51.12           125.0    
   9593      1    100      2       51.12           125.0    
   9594      1    100      3       51.38           125.0    
   9595      1    100      4       51.56           125.0    
   9596      1    100      5       52.69           125.0    
   9597      1    100      6       53.00           125.0    
   9598      1    100      7       51.00           125.0    
   9599      1    100      8       51.06           125.0    
   9600      1    100      9       51.94           125.0    
   9601      1    100     10       53.19           125.0    
   9602      1    100     11       53.44           125.0    
   9603      1    100     12       53.75           125.0    
   9604      1    100     13       52.94           125.0    
   9605      1    100     14       53.69           125.0    
   9606      1    100     15       54.12           125.0    
   9607      1    100     16       56.56           125.0    
   9608      1    100     17       57.88           125.0    
   9609      1    100     18       57.38           125.0    
   9610      1    100     19       58.31           125.0    
   9611      1    100     20       61.06           125.0    
   9612      1    100     21       64.19           125.0    
   9613      1    100     22       69.19           125.0    
   9614      1    100     23       73.69           125.0    
   9615      1    100     24       79.06           125.0    
   9616      1    100     25       88.94           125.0    
   9617      1    100     26       97.38           125.0    
   9618      1    100     27       107.1           125.0    
   9619      1    100     28       112.1           125.0    
   9620      1    100     29       112.2           125.0    
   9621      1    100     30       112.0           125.0    
   9622      1    100     31       112.1           125.0    
   9623      1    100     32       112.5           125.0    
   9624      1    100     33       113.0           125.0    
   9625      1    100     34       110.0           125.0    
   9626      1    100     35       106.9           125.0    
   9627      1    100     36       102.5           125.0    
   9628      1    100     37       97.75           125.0    
   9629      1    100     38       96.88           125.0    
   9630      1    100     39       96.62           125.0    
   9631      1    100     40       96.94           125.0    
   9632      1    100     41       99.19           125.0    
   9633      1    100     42       101.8           125.0    
   9634      1    100     43       104.3           125.0    
   9635      1    100     44       106.2           125.0    
   9636      1    100     45       107.1           125.0    
   9637      1    100     46       107.7           125.0    
   9638      1    100     47       102.1           125.0    
   9639      1    100     48       94.69           125.0    
   9640      1    100     49       90.62           125.0    
   9641      1    100     50       86.94           125.0    
   9642      1    100     51       86.50           125.0    
   9643      1    100     52       82.94           125.0    
   9644      1    100     53       79.56           125.0    
   9645      1    100     54       76.88           125.0    
   9646      1    100     55       72.50           125.0    
   9647      1    100     56       70.38           125.0    
   9648      1    100     57       70.06           125.0    
   9649      1    100     58       70.69           125.0    
   9650      1    100     59       71.50           125.0    
   9651      1    100     60       74.12           125.0    
   9652      1    100     61       75.44           125.0    
   9653      1    100     62       75.75           125.0    
   9654      1    100     63       75.50           125.0    
   9655      1    100     64       75.94           125.0    
   9656      1    100     65       77.75           125.0    
   9657      1    100     66       78.25           125.0    
   9658      1    100     67       79.94           125.0    
   9659      1    100     68       83.88           125.0    
   9660      1    100     69       94.12           125.0    
   9661      1    100     70       102.4           125.0    
   9662      1    100     71       104.4           125.0    
   9663      1    100     72       104.9           125.0    
   9664      1    100     73       101.9           125.0    
   9665      1    100     74       97.06           125.0    
   9666      1    100     75       91.50           125.0    
   9667      1    100     76       87.62           125.0    
   9668      1    100     77       87.00           125.0    
   9669      1    100     78       86.62           125.0    
   9670      1    100     79       86.19           125.0    
   9671      1    100     80       86.38           125.0    
   9672      1    100     81       86.31           125.0    
   9673      1    100     82       87.38           125.0    
   9674      1    100     83       89.38           125.0    
   9675      1    100     84       92.38           125.0    
   9676      1    100     85       95.25           125.0    
   9677      1    100     86       100.4           125.0    
   9678      1    100     87       106.6           125.0    
   9679      1    100     88       110.6           125.0    
   9680      1    100     89       111.5           125.0    
   9681      1    100     90       111.2           125.0    
   9682      1    100     91       106.8           125.0    
   9683      1    100     92       104.2           125.0    
   9684      1    100     93       102.9           125.0    
   9685      1    100     94       98.94           125.0    
   9686      1    100     95       93.19           125.0    
   9687      1    100     96       80.38           125.0    
   9688      1    100     97       70.06           125.0    
   9689      1    100     98       64.12           125.0    
   9690      1    100     99       64.50           125.0    
   9691      1    100    100       68.88           125.0    

   9691 DRAINS

                 RECHARGE =  1.000000E-03
 
 SOLVING FOR HEAD 

    ------------------------------------------------
       NWT REQUIRED            5 OUTER ITERATIONS 
       AND A TOTAL OF        291 INNER ITERATIONS.
    ------------------------------------------------

 OUTPUT CONTROL FOR STRESS PERIOD    1   TIME STEP    1
    SAVE HEAD FOR ALL LAYERS
    SAVE BUDGET
 UBDSV2 SAVING "   CONSTANT HEAD" ON UNIT  53 AT TIME STEP  1, STRESS PERIOD   1
 UBDSV1 SAVING "FLOW RIGHT FACE " ON UNIT  53 AT TIME STEP  1, STRESS PERIOD   1
 UBDSV1 SAVING "FLOW FRONT FACE " ON UNIT  53 AT TIME STEP  1, STRESS PERIOD   1
 UBDSV4 SAVING "          DRAINS" ON UNIT  53 AT TIME STEP  1, STRESS PERIOD   1

 HEAD WILL BE SAVED ON UNIT   51 AT END OF TIME STEP    1, STRESS PERIOD    1
1
  VOLUMETRIC BUDGET FOR ENTIRE MODEL AT END OF TIME STEP    1, STRESS PERIOD   1
  ------------------------------------------------------------------------------

     CUMULATIVE VOLUMES      L**3       RATES FOR THIS TIME STEP      L**3/T
     ------------------                 ------------------------

           IN:                                      IN:
           ---                                      ---
             STORAGE =           0.0000               STORAGE =           0.0000
       CONSTANT HEAD =      236826.6719         CONSTANT HEAD =      236826.6719
              DRAINS =           0.0000                DRAINS =           0.0000
            RECHARGE =       14082.5000              RECHARGE =       14082.5000

            TOTAL IN =      250909.1719              TOTAL IN =      250909.1719

          OUT:                                     OUT:
          ----                                     ----
             STORAGE =           0.0000               STORAGE =           0.0000
       CONSTANT HEAD =      212722.4844         CONSTANT HEAD =      212722.4844
              DRAINS =       38188.5195                DRAINS =       38188.5195
            RECHARGE =           0.0000              RECHARGE =           0.0000

           TOTAL OUT =      250911.0000             TOTAL OUT =      250911.0000

            IN - OUT =          -1.8281              IN - OUT =          -1.8281

 PERCENT DISCREPANCY =          -0.00     PERCENT DISCREPANCY =          -0.00






         TIME SUMMARY AT END OF TIME STEP    1 IN STRESS PERIOD    1
                    SECONDS     MINUTES      HOURS       DAYS        YEARS
                    -----------------------------------------------------------
   TIME STEP LENGTH  86400.      1440.0      24.000      1.0000     2.73785E-03
 STRESS PERIOD TIME  86400.      1440.0      24.000      1.0000     2.73785E-03
         TOTAL TIME  86400.      1440.0      24.000      1.0000     2.73785E-03
1

 Run end date and time (yyyy/mm/dd hh:mm:ss): 2021/08/03 13:05:27
 Elapsed run time:  0.411 Seconds

