
  OWA STORM WATER MANAGEMENT MODEL - VERSION v5.1.14 (OWA 2022-07-31)
  --------------------------------------------------------------

  WARNING 10: crest elevation raised to downstream invert for regulator Link O2
  WARNING 02: maximum depth increased for Node J6
  WARNING 02: maximum depth increased for Node J8
  WARNING 02: maximum depth increased for Node J7
  WARNING 02: maximum depth increased for Node J1
  WARNING 02: maximum depth increased for Node J2
  WARNING 02: maximum depth increased for Node J5
  WARNING 02: maximum depth increased for Node J4
  WARNING 02: maximum depth increased for Node J3
  WARNING 02: maximum depth increased for Node N1
  
  *********************
  Rainfall File Summary
  *********************
  Station    First        Last         Recording   Periods    Periods    Periods
  ID         Date         Date         Frequency  w/Precip    Missing    Malfunc.
  -------------------------------------------------------------------------------
  llanquihue 01/02/2016   12/27/2019      60 min      5551          0          0

  
  *********************************************************
  NOTE: The summary statistics displayed in this report are
  based on results found at every computational time step,  
  not just on results from each reporting time step.
  *********************************************************
  
  ****************
  Analysis Options
  ****************
  Flow Units ............... CMS
  Process Models:
    Rainfall/Runoff ........ YES
    RDII ................... NO
    Snowmelt ............... NO
    Groundwater ............ NO
    Flow Routing ........... YES
    Ponding Allowed ........ YES
    Water Quality .......... NO
  Infiltration Method ...... GREEN_AMPT
  Flow Routing Method ...... DYNWAVE
  Surcharge Method ......... EXTRAN
  Starting Date ............ 03/01/2017 00:00:00
  Ending Date .............. 03/01/2019 00:01:00
  Antecedent Dry Days ...... 0.0
  Report Time Step ......... 00:05:00
  Wet Time Step ............ 00:05:00
  Dry Time Step ............ 01:00:00
  Routing Time Step ........ 10.00 sec
  Variable Time Step ....... NO
  Maximum Trials ........... 8
  Number of Threads ........ 1
  Head Tolerance ........... 0.001500 m
  
  
  **************************        Volume         Depth
  Runoff Quantity Continuity     hectare-m            mm
  **************************     ---------       -------
  Total Precipitation ......      1699.838      3228.453
  Evaporation Loss .........       130.323       247.518
  Infiltration Loss ........      1316.715      2500.798
  Surface Runoff ...........       253.113       480.730
  Final Storage ............         0.000         0.000
  Continuity Error (%) .....        -0.018
  
  
  **************************        Volume        Volume
  Flow Routing Continuity        hectare-m      10^6 ltr
  **************************     ---------     ---------
  Dry Weather Inflow .......         0.000         0.000
  Wet Weather Inflow .......       253.113      2531.157
  Groundwater Inflow .......         0.000         0.000
  RDII Inflow ..............         0.000         0.000
  External Inflow ..........      2783.634     27836.632
  External Outflow .........      2121.014     21210.366
  Flooding Loss ............         0.000         0.000
  Evaporation Loss .........         9.313        93.132
  Exfiltration Loss ........       905.499      9055.082
  Initial Stored Volume ....         7.556        75.562
  Final Stored Volume ......         8.375        83.749
  Continuity Error (%) .....         0.003
  
  
  ********************************
  Highest Flow Instability Indexes
  ********************************
  Link V1 (133)
  Link C40 (129)
  Link C1 (124)
  Link C2 (7)
  Link C39 (6)
  
  
  *************************
  Routing Time Step Summary
  *************************
  Minimum Time Step           :    10.00 sec
  Average Time Step           :    10.00 sec
  Maximum Time Step           :    10.00 sec
  Percent in Steady State     :     0.00
  Average Iterations per Step :     2.61
  Percent Not Converging      :     0.07
  
  
  ***************************
  Subcatchment Runoff Summary
  ***************************
  
  ------------------------------------------------------------------------------------------------------------------------------
                            Total      Total      Total      Total     Imperv       Perv      Total       Total     Peak  Runoff
                           Precip      Runon       Evap      Infil     Runoff     Runoff     Runoff      Runoff   Runoff   Coeff
  Subcatchment                 mm         mm         mm         mm         mm         mm         mm    10^6 ltr      CMS
  ------------------------------------------------------------------------------------------------------------------------------
  S1                      3228.45       0.00     808.34     736.09    1685.15       0.00    1685.15       64.37     0.09   0.522
  S2                      3228.45       0.00     857.12     606.95    1765.35       0.00    1765.35       46.96     0.07   0.547
  S3                      3228.45       0.00     762.45     839.40    1628.06       0.00    1628.06       49.49     0.07   0.504
  S4                      3228.45       0.00     846.33     597.26    1786.12       0.00    1786.12       49.83     0.07   0.553
  S5                      3228.45       0.00     224.30    2608.59     395.68       0.00     395.68       71.82     0.10   0.123
  S6                      3228.45    1489.93     483.56    2982.01    1252.90       0.00    1252.90      217.88     0.14   0.266
  S_W5                    3228.45       0.00     432.95       0.00    2807.33       0.00    2807.33      165.91     0.18   0.870
  S8                      3228.45       0.00     840.15     600.49    1789.22       0.00    1789.22       23.62     0.03   0.554
  S9                      3228.45       0.00     815.41     742.54    1671.43       0.00    1671.43       23.90     0.03   0.518
  S10                     3228.45       0.00     809.23     597.26    1825.53       0.00    1825.53       16.43     0.02   0.565
  S11                     3228.45       0.00     801.75     652.15    1777.11       0.00    1777.11       41.94     0.06   0.550
  S12                     3228.45       0.00     848.82     597.26    1783.56       0.00    1783.56       50.30     0.07   0.552
  S13                     3228.45       0.00     799.66     800.66    1628.99       0.00    1628.99       37.79     0.05   0.505
  S14                     3228.45       0.00     844.15     639.23    1746.10       0.00    1746.10       29.33     0.04   0.541
  S15                     3228.45       0.00     400.40    2033.93     794.54       0.00     794.54       29.16     0.04   0.246
  S16                     3228.45       0.00     403.55    2046.84     778.36       0.00     778.36       32.15     0.04   0.241
  S17                     3228.45       0.00     407.48    2011.33     810.06       0.00     810.06       23.90     0.03   0.251
  S18                     3228.45       0.00     312.90    2340.63     575.13       0.00     575.13       48.31     0.07   0.178
  S19                     3228.45       0.00     829.19     697.35    1702.84       0.00    1702.84       25.37     0.04   0.527
  S20                     3228.45       0.00     818.90     597.26    1814.81       0.00    1814.81       15.43     0.02   0.562
  S21                     3228.45       0.00     812.70     597.26    1821.60       0.00    1821.60       10.75     0.01   0.564
  S22                     3228.45       0.00     860.24     597.26    1771.90       0.00    1771.90       28.35     0.04   0.549
  S23                     3228.45       0.00     848.45     597.26    1783.94       0.00    1783.94       46.38     0.06   0.553
  S24                     3228.45       0.00     586.48    1507.69    1134.90       0.00    1134.90       56.75     0.08   0.352
  S25                     3228.45       0.00     427.41    1940.30     861.13       0.00     861.13       60.28     0.08   0.267
  S26                     3228.45    4601.40     335.58    5848.81    1642.81       3.09    1645.90      150.77     0.16   0.210
  S27                     3228.45       0.00     855.05     616.63    1757.72       0.00    1757.72       68.20     0.09   0.544
  S28                     3228.45       0.00     856.94     752.23    1619.72       0.00    1619.72       29.80     0.04   0.502
  S29                     3228.45       0.00     399.43    1927.39     903.51       0.00     903.51       16.62     0.02   0.280
  S30                     3228.45       0.00     631.47    1246.18    1352.08       0.00    1352.08       36.51     0.05   0.419
  S31                     3228.45       0.00     681.14    1178.39    1369.52       0.00    1369.52      119.70     0.16   0.424
  S32                     3228.45       0.00     631.26    1301.07    1296.86       0.00    1296.86       38.78     0.05   0.402
  S33                     3228.45       0.00     688.14    1171.93    1368.92       0.00    1368.92       61.60     0.08   0.424
  S34                     3228.45    1084.53     283.86    3247.67     781.84       0.00     781.84       44.41     0.06   0.181
  S35                     3228.45     630.69     399.11    2674.39     785.71       0.00     785.71       60.19     0.04   0.204
  S36                     3228.45       0.00     268.50    2466.54     493.80       0.00     493.80       57.33     0.08   0.153
  S_W1                    3228.45    1925.21     351.80       0.00    4804.27       0.00    4804.27       41.00     0.05   0.932
  S_W2                    3228.45    2110.47     390.10       0.00    4951.31       0.00    4951.31      240.30     0.29   0.927
  S_W3                    3228.45     259.65     320.26       0.00    3172.82       0.00    3172.82      203.15     0.22   0.910
  S_W4                    3228.45    2105.79     440.70       0.00    4896.85       0.00    4896.85      453.86     0.49   0.918
  S37                     3228.45       0.00     897.88     597.26    1733.83       0.00    1733.83       37.28     0.05   0.537
  E1                      3228.45       0.00     106.28    2905.61     216.85       0.00     216.85      102.57     0.15   0.067
  E2                      3228.45       0.00     108.95    2905.61     214.05       0.00     214.05      342.27     0.49   0.066
  E3                      3228.45       0.00     106.54    2905.61     216.57       0.00     216.57       39.94     0.06   0.067
  E4                      3228.45       0.00     104.42    2905.61     218.96       0.00     218.96       39.28     0.06   0.068
  E5                      3228.45       0.00     104.90    2905.61     218.39       0.00     218.39       20.53     0.03   0.068
  E6                      3228.45       0.00     107.96    2905.61     215.08       0.00     215.08      181.83     0.26   0.067
  
  
  ******************
  Node Depth Summary
  ******************
  
  ---------------------------------------------------------------------------------
                                 Average  Maximum  Maximum  Time of Max    Reported
                                   Depth    Depth      HGL   Occurrence   Max Depth
  Node                 Type       Meters   Meters   Meters  days hr:min      Meters
  ---------------------------------------------------------------------------------
  J6                   JUNCTION     0.03     0.37    55.96    96  06:50        0.37
  J8                   JUNCTION     0.00     0.06    55.06    96  06:25        0.06
  J7                   JUNCTION     0.04     0.12    56.12    96  07:00        0.12
  J9                   JUNCTION     0.01     0.06    54.06    96  07:00        0.06
  J1                   JUNCTION     1.28     1.47    54.97   175  17:06        1.47
  J2                   JUNCTION     0.05     0.10    55.44    96  07:00        0.10
  J5                   JUNCTION     0.10     0.12    55.71    96  07:00        0.12
  J4                   JUNCTION     0.08     0.13    55.22    96  07:00        0.13
  J3                   JUNCTION     0.01     0.03    55.37    96  06:59        0.03
  N1                   JUNCTION     0.79     0.98    54.99   175  17:05        0.98
  TS1                  JUNCTION     1.50     2.04    55.33     0  00:00        1.69
  TS10                 JUNCTION     2.28     2.45    54.95   175  17:29        2.45
  TS11                 JUNCTION     1.25     1.42    54.95   175  17:30        1.42
  TS12                 JUNCTION     1.73     1.90    54.95   175  17:30        1.90
  TS13                 JUNCTION     0.32     0.47    54.92   175  17:39        0.47
  TS14                 JUNCTION     1.34     1.49    54.90   175  17:45        1.49
  TS15                 JUNCTION     1.38     1.53    54.90   175  17:45        1.53
  TS16                 JUNCTION     1.58     1.72    54.89   175  17:46        1.72
  TS17                 JUNCTION     1.94     2.08    54.89   175  17:46        2.08
  TS18                 JUNCTION     1.37     1.51    54.89   175  17:46        1.51
  TS19                 JUNCTION     0.79     0.93    54.89   175  17:46        0.93
  TS2                  JUNCTION     1.59     1.78    54.97   175  17:06        1.78
  TS20                 JUNCTION     0.10     0.47    55.00     0  00:00        0.14
  TS21                 JUNCTION     0.67     0.82    53.37   175  17:57        0.82
  TS22                 JUNCTION     0.54     0.67    53.26   175  17:53        0.67
  TS23                 JUNCTION     1.31     1.43    53.26   175  17:53        1.43
  TS24                 JUNCTION     1.08     1.20    53.25   175  17:52        1.20
  TS25                 JUNCTION     0.96     1.08    53.24   175  17:53        1.08
  TS26                 JUNCTION     1.56     1.68    53.24   175  17:54        1.68
  TS27                 JUNCTION     1.58     1.69    53.24   175  17:54        1.69
  TS28                 JUNCTION     1.39     1.51    53.24   175  17:54        1.51
  TS29                 JUNCTION     0.36     0.48    53.25     0  00:00        0.46
  TS3                  JUNCTION     1.69     1.88    54.97   175  17:06        1.88
  TS30                 JUNCTION     0.39     0.55    53.09   175  17:26        0.55
  TS31                 JUNCTION     0.48     0.64    53.06   175  17:29        0.64
  TS32                 JUNCTION     0.72     0.88    53.03   175  17:30        0.88
  TS33                 JUNCTION     0.48     0.62    52.98   175  17:31        0.62
  TS34                 JUNCTION     0.30     0.49    52.58     0  00:00        0.48
  TS35                 JUNCTION     0.79     0.97    52.56   175  17:35        0.97
  TS36                 JUNCTION     0.41     0.55    52.47   175  17:02        0.55
  TS4                  JUNCTION     1.69     1.87    54.97   175  17:06        1.87
  TS5                  JUNCTION     1.58     1.76    54.96   175  17:17        1.76
  TS6                  JUNCTION     1.67     1.84    54.95   175  17:24        1.84
  TS7                  JUNCTION     1.95     2.12    54.95   175  17:28        2.12
  TS8                  JUNCTION     1.98     2.15    54.95   175  17:29        2.15
  TS9                  JUNCTION     1.63     1.80    54.95   175  17:29        1.80
  N2                   JUNCTION     0.13     0.20    53.46   175  18:14        0.20
  N3                   JUNCTION     0.06     0.23    53.05   175  15:48        0.23
  Out1                 OUTFALL      0.16     0.39    49.89     0  00:00        0.37
  Out2                 OUTFALL      0.04     0.12    54.12    96  07:00        0.12
  Out3                 OUTFALL      0.00     0.00    45.00     0  00:00        0.00
  W1                   STORAGE      0.96     1.16    55.00   175  17:06        1.16
  W2                   STORAGE      3.01     3.11    53.50   175  18:14        3.11
  W3                   STORAGE      0.36     0.49    53.13   175  18:06        0.49
  W4                   STORAGE      1.15     1.50    51.84     0  00:00        1.47
  SU1                  STORAGE      0.00     0.14    53.14   175  20:00        0.14
  SU2                  STORAGE      0.04     0.88    54.88   175  20:33        0.88
  SU3                  STORAGE      0.00     0.25    55.34   175  20:21        0.25
  SU4                  STORAGE      0.70     3.36    57.36   184  21:53        3.36
  SU5                  STORAGE      0.00     0.26    52.26   175  20:10        0.26
  W5                   STORAGE      0.18     0.35    54.95   175  17:41        0.35
  SU6                  STORAGE      0.00     0.18    55.18   175  20:14        0.18
  
  
  *******************
  Node Inflow Summary
  *******************
  
  -------------------------------------------------------------------------------------------------
                                  Maximum  Maximum                  Lateral       Total        Flow
                                  Lateral    Total  Time of Max      Inflow      Inflow     Balance
                                   Inflow   Inflow   Occurrence      Volume      Volume       Error
  Node                 Type           CMS      CMS  days hr:min    10^6 ltr    10^6 ltr     Percent
  -------------------------------------------------------------------------------------------------
  J6                   JUNCTION     0.070    0.070    96  07:00        50.3        50.3      -0.426
  J8                   JUNCTION     0.054    0.054    96  07:00        39.1        39.1      -0.659
  J7                   JUNCTION     0.132    0.132    96  07:00    1.03e+03    1.03e+03      -0.000
  J9                   JUNCTION     0.054    0.054    96  07:00        67.9        67.9       0.007
  J1                   JUNCTION     0.093    0.093    96  07:00         291         291       0.018
  J2                   JUNCTION     0.076    0.076    96  07:00         490         490       0.001
  J5                   JUNCTION     0.212    0.212    96  07:00    7.32e+03    7.32e+03       0.000
  J4                   JUNCTION     0.064    0.275    96  07:00         416    7.73e+03       0.000
  J3                   JUNCTION     0.037    0.037    96  07:00         283         283       0.004
  N1                   JUNCTION     0.000    1.092     0  00:00           0     9.1e+03      -0.036
  TS1                  JUNCTION     0.072    0.379    96  07:00         458       1e+04      -0.017
  TS10                 JUNCTION     0.000    0.799     0  00:00           0    1.32e+04       0.008
  TS11                 JUNCTION     0.000    0.448   175  17:03           0    1.32e+04       0.003
  TS12                 JUNCTION     0.000    1.042     0  00:00           0    1.32e+04       0.005
  TS13                 JUNCTION     0.000    0.442   175  17:07           0    1.32e+04      -0.000
  TS14                 JUNCTION     0.000    0.480     0  00:00           0    1.32e+04       0.002
  TS15                 JUNCTION     0.000    0.440   175  17:10           0    1.32e+04       0.002
  TS16                 JUNCTION     0.000    0.549     0  00:00           0    1.32e+04       0.004
  TS17                 JUNCTION     0.000    1.165     0  00:00           0    1.32e+04       0.005
  TS18                 JUNCTION     0.000    0.763     0  00:00           0    1.32e+04       0.002
  TS19                 JUNCTION     0.000    0.444     0  00:00           0    1.32e+04       0.001
  TS2                  JUNCTION     0.000    2.883     0  00:00           0       1e+04      -0.006
  TS20                 JUNCTION     0.025    0.462   175  17:46    1.59e+03    1.48e+04      -0.003
  TS21                 JUNCTION     0.000    7.910     0  00:00           0    1.48e+04       0.001
  TS22                 JUNCTION     0.005    0.466   175  17:58         296    1.51e+04       0.000
  TS23                 JUNCTION     0.000    1.324     0  00:00           0    1.51e+04       0.002
  TS24                 JUNCTION     0.095    0.491   175  17:00        88.2    1.52e+04       0.001
  TS25                 JUNCTION     0.000    0.490   175  17:00           0    1.52e+04       0.001
  TS26                 JUNCTION     0.000    0.834     0  00:00           0    1.52e+04       0.003
  TS27                 JUNCTION     0.000    0.730     0  00:00           0    1.51e+04       0.003
  TS28                 JUNCTION     0.000    1.051     0  00:00           0    1.51e+04       0.003
  TS29                 JUNCTION     0.000    0.487   175  17:52           0    1.51e+04      -0.000
  TS3                  JUNCTION     0.142    1.411     0  00:01         218    1.06e+04       0.006
  TS30                 JUNCTION     0.045    0.509   175  17:04         555    1.57e+04      -0.000
  TS31                 JUNCTION     0.000    0.603     0  00:00           0    1.57e+04       0.000
  TS32                 JUNCTION     0.000    0.912     0  00:00           0    1.66e+04      -0.000
  TS33                 JUNCTION     0.000    0.568   175  17:23           0    1.66e+04       0.000
  TS34                 JUNCTION     0.000    0.568   175  17:33           0    1.66e+04      -0.002
  TS35                 JUNCTION     0.000    2.984     0  00:00           0    1.66e+04       0.002
  TS36                 JUNCTION     0.163    0.619   175  17:00         120    1.67e+04      -0.000
  TS4                  JUNCTION     0.000    0.572    96  07:00           0    1.06e+04       0.003
  TS5                  JUNCTION     0.000    0.562    96  07:02           0    1.08e+04       0.005
  TS6                  JUNCTION     0.000    0.485    96  07:03           0    1.07e+04       0.002
  TS7                  JUNCTION     0.000    0.485     0  00:01           0    1.19e+04       0.007
  TS8                  JUNCTION     0.000    2.231     0  00:00           0    1.19e+04       0.010
  TS9                  JUNCTION     0.000    0.506     0  00:01           0    1.32e+04       0.012
  N2                   JUNCTION     0.000    0.065   175  18:14           0    1.52e+03      -0.000
  N3                   JUNCTION     0.000    0.066   175  21:29           0         895       0.086
  Out1                 OUTFALL      0.000    2.812     0  00:00           0    1.99e+04       0.000
  Out2                 OUTFALL      0.087    0.219    96  07:00         286    1.31e+03       0.000
  Out3                 OUTFALL      0.000    0.000     1  00:00        26.7        26.7       0.000
  W1                   STORAGE      0.075    0.388    96  07:00    1.71e+03    9.73e+03       0.056
  W2                   STORAGE      0.337    0.337    96  07:00    3.29e+03    3.34e+03       0.000
  W3                   STORAGE      0.243    0.276    96  07:00    1.72e+03    3.24e+03       0.000
  W4                   STORAGE      0.688    1.157    96  07:00    4.09e+03    2.09e+04      -0.001
  SU1                  STORAGE      0.052    0.052    96  07:00        93.8        93.8      -0.002
  SU2                  STORAGE      0.104    0.158    96  07:00        84.2         123       0.254
  SU3                  STORAGE      0.002    0.075    96  07:00         134         185       0.119
  SU4                  STORAGE      0.075    0.075    96  07:00         458         458      -0.000
  SU5                  STORAGE      0.075    0.075    96  07:00         102         102      -0.002
  W5                   STORAGE      0.250    0.322    96  07:00     4.5e+03    4.56e+03      -0.000
  SU6                  STORAGE      0.101    0.101    96  07:00         573         573      -0.000
  
  
  **********************
  Node Surcharge Summary
  **********************
  
  No nodes were surcharged.
  
  
  *********************
  Node Flooding Summary
  *********************
  
  No nodes were flooded.
  
  
  **********************
  Storage Volume Summary
  **********************
  
  --------------------------------------------------------------------------------------------------
                         Average     Avg  Evap Exfil       Maximum     Max    Time of Max    Maximum
                          Volume    Pcnt  Pcnt  Pcnt        Volume    Pcnt     Occurrence    Outflow
  Storage Unit           1000 m3    Full  Loss  Loss       1000 m3    Full    days hr:min        CMS
  --------------------------------------------------------------------------------------------------
  W1                       0.669      23     0     6         1.419      49     175  17:06      0.481
  W2                      59.047      54     0    52        62.218      56     175  18:14      0.095
  W3                       1.452      10     0    72         3.597      26     175  18:06      0.122
  W4                       6.570      17     0     5        13.710      35       0  00:00      2.833
  SU1                      0.003       0     0   100         0.354       1     175  20:00      0.008
  SU2                      0.092       0     0   100         2.196       9     175  20:33      0.008
  SU3                      0.012       0     0   100         0.627       3     175  20:21      0.008
  SU4                      1.746       7     0   100         8.398      34     184  21:53      0.008
  SU5                      0.009       0     0   100         0.650       3     175  20:10      0.008
  W5                       0.864       1     0    40         3.259       3     175  17:41      0.306
  SU6                      0.017       0     0   100         0.879       2     175  20:14      0.015
  
  
  ***********************
  Outfall Loading Summary
  ***********************
  
  -----------------------------------------------------------
                         Flow       Avg       Max       Total
                         Freq      Flow      Flow      Volume
  Outfall Node           Pcnt       CMS       CMS    10^6 ltr
  -----------------------------------------------------------
  Out1                 100.00     0.315     2.812   19870.789
  Out2                  99.93     0.021     0.219    1312.811
  Out3                  99.86     0.000     0.000      26.669
  -----------------------------------------------------------
  System                99.93     0.336     2.812   21210.269
  
  
  ********************
  Link Flow Summary
  ********************
  
  -----------------------------------------------------------------------------
                                 Maximum  Time of Max   Maximum    Max/    Max/
                                  |Flow|   Occurrence   |Veloc|    Full    Full
  Link                 Type          CMS  days hr:min     m/sec    Flow   Depth
  -----------------------------------------------------------------------------
  C1                   CONDUIT     2.883     0  00:00      1.07    1.99    0.83
  C2                   CHANNEL     1.411     0  00:01      0.52    0.04    0.55
  C3                   CHANNEL     0.572    96  07:00      0.24    0.07    0.57
  C4                   CHANNEL     0.562    96  07:02      0.29    0.02    0.47
  C5                   CHANNEL     0.485    96  07:03      0.23    0.01    0.46
  C6                   CHANNEL     0.476    96  07:03      0.28    0.01    0.50
  C7                   CHANNEL     0.440    96  07:02      0.24    0.00    0.25
  C8                   CHANNEL     2.232     0  00:00      0.36    0.01    0.40
  C9                   CHANNEL     0.505     0  00:00      0.20    0.00    0.15
  C10                  CHANNEL     0.448   175  17:03      0.48    0.00    0.13
  C11                  CHANNEL     0.709     0  00:00      0.32    0.00    0.11
  C12                  CHANNEL     0.442   175  17:07      0.57    0.00    0.08
  C13                  CHANNEL     0.480     0  00:00      0.53    0.00    0.08
  C14                  CHANNEL     0.440   175  17:10      0.22    0.00    0.12
  C15                  CHANNEL     0.549     0  00:00      0.29    0.00    0.17
  C16                  CHANNEL     0.607     0  00:00      0.33    0.00    0.27
  C17                  CHANNEL     0.584     0  00:01      0.44    0.00    0.18
  C18                  CHANNEL     0.763     0  00:00      0.47    0.02    0.50
  C19                  CHANNEL     0.444     0  00:00      0.34    0.01    0.24
  C20                  CHANNEL     7.910     0  00:00      0.50    0.11    0.34
  C21                  CHANNEL     0.462   175  17:58      0.37    0.04    0.25
  C22                  CHANNEL     0.989     0  00:00      0.48    0.02    0.42
  C23                  CHANNEL     0.467   175  18:10      0.24    0.01    0.32
  C24                  CHANNEL     0.490   175  17:00      0.28    0.01    0.30
  C25                  CHANNEL     0.834     0  00:00      0.47    0.01    0.43
  C26                  CHANNEL     0.488   175  17:01      0.08    0.03    0.42
  C27                  CHANNEL     0.548     0  00:00      0.27    0.01    0.42
  C28                  CHANNEL     1.051     0  00:00      0.56    0.00    0.22
  C29                  CHANNEL     0.487   175  17:54      0.22    0.01    0.16
  C30                  CHANNEL     0.603     0  00:00      0.21    0.01    0.21
  C31                  CHANNEL     0.602     0  00:00      0.29    0.03    0.41
  C32                  CHANNEL     0.568   175  17:23      0.20    0.01    0.26
  C33                  CHANNEL     0.568   175  17:33      0.41    0.02    0.21
  C34                  CHANNEL     2.624     0  00:00      0.19    0.06    0.39
  C35                  CHANNEL     0.569   175  18:13      0.30    0.01    0.21
  C37                  CONDUIT     0.132    96  07:00      3.48    0.13    0.25
  C38                  CONDUIT     0.273    96  07:00      1.09    0.08    0.55
  C39                  CONDUIT     0.040    96  06:40      0.20    0.01    0.51
  C0                   CHANNEL     0.090    96  07:00      0.19    0.00    0.43
  Calle1               CHANNEL     0.211    96  07:00      0.71    0.28    0.57
  Calle2               CHANNEL     0.054    96  07:00      0.13    0.05    0.65
  Calle3               CHANNEL     0.054    96  07:00      1.09    0.04    0.61
  C40                  CONDUIT     1.092     0  00:00      0.48    0.53    0.74
  Calle0               CHANNEL     0.076    96  07:00      0.40    0.13    0.50
  C41                  CONDUIT     0.065   175  18:15      0.89    0.27    0.30
  C42                  CONDUIT     0.112   106  19:55      0.81    0.25    0.74
  C36                  CHANNEL     0.617   175  17:02      0.33    0.02    0.21
  C43                  CHANNEL     2.812     0  00:00      1.00    0.08    0.31
  C44                  CHANNEL     0.073    96  07:00      0.21    0.07    0.32
  C45                  CHANNEL     0.087     0  00:00      0.09    0.05    0.77
  C46                  CHANNEL     0.098     0  00:00      0.11    0.05    0.77
  C47                  CHANNEL     0.089     0  00:00      0.15    0.05    0.77
  O2                   ORIFICE     0.085     0  00:00                      0.40
  O3                   ORIFICE     0.066   175  21:29                      0.40
  V1                   WEIR        0.468   175  15:10                      0.77
  
  
  ***************************
  Flow Classification Summary
  ***************************
  
  -------------------------------------------------------------------------------------
                      Adjusted    ---------- Fraction of Time in Flow Class ---------- 
                       /Actual         Up    Down  Sub   Sup   Up    Down  Norm  Inlet 
  Conduit               Length    Dry  Dry   Dry   Crit  Crit  Crit  Crit  Ltd   Ctrl  
  -------------------------------------------------------------------------------------
  C1                      1.00   0.00  0.00  0.00  1.00  0.00  0.00  0.00  0.00  0.00
  C2                      1.00   0.00  0.00  0.00  1.00  0.00  0.00  0.00  0.00  0.00
  C3                      1.00   0.00  0.00  0.00  1.00  0.00  0.00  0.00  0.00  0.00
  C4                      1.00   0.00  0.00  0.00  1.00  0.00  0.00  0.00  0.00  0.00
  C5                      1.00   0.00  0.00  0.00  1.00  0.00  0.00  0.00  0.00  0.00
  C6                      1.00   0.00  0.00  0.00  1.00  0.00  0.00  0.00  0.00  0.00
  C7                      1.00   0.00  0.00  0.00  1.00  0.00  0.00  0.00  0.00  0.00
  C8                      1.00   0.00  0.00  0.00  1.00  0.00  0.00  0.00  0.00  0.00
  C9                      1.00   0.00  0.00  0.00  1.00  0.00  0.00  0.00  0.00  0.00
  C10                     1.00   0.00  0.00  0.00  1.00  0.00  0.00  0.00  0.00  0.00
  C11                     1.00   0.00  0.00  0.00  1.00  0.00  0.00  0.00  0.00  0.00
  C12                     1.00   0.00  0.00  0.00  1.00  0.00  0.00  0.00  0.00  0.00
  C13                     1.00   0.00  0.00  0.00  1.00  0.00  0.00  0.00  0.00  0.00
  C14                     1.00   0.00  0.00  0.00  1.00  0.00  0.00  0.00  0.00  0.00
  C15                     1.00   0.00  0.00  0.00  1.00  0.00  0.00  0.00  0.00  0.00
  C16                     1.00   0.00  0.00  0.00  1.00  0.00  0.00  0.00  0.00  0.00
  C17                     1.00   0.00  0.00  0.00  1.00  0.00  0.00  0.00  0.00  0.00
  C18                     1.00   0.00  0.00  0.00  1.00  0.00  0.00  0.00  0.00  0.00
  C19                     1.00   0.00  0.00  0.00  1.00  0.00  0.00  0.00  0.00  0.00
  C20                     1.00   0.00  0.00  0.00  1.00  0.00  0.00  0.00  1.00  0.00
  C21                     1.00   0.00  0.00  0.00  1.00  0.00  0.00  0.00  0.00  0.00
  C22                     1.00   0.00  0.00  0.00  1.00  0.00  0.00  0.00  0.00  0.00
  C23                     1.00   0.00  0.00  0.00  1.00  0.00  0.00  0.00  0.00  0.00
  C24                     1.00   0.00  0.00  0.00  1.00  0.00  0.00  0.00  0.00  0.00
  C25                     1.00   0.00  0.00  0.00  1.00  0.00  0.00  0.00  0.00  0.00
  C26                     1.00   0.00  0.00  0.00  1.00  0.00  0.00  0.00  0.00  0.00
  C27                     1.00   0.00  0.00  0.00  1.00  0.00  0.00  0.00  0.00  0.00
  C28                     1.00   0.00  0.00  0.00  1.00  0.00  0.00  0.00  0.00  0.00
  C29                     1.00   0.00  0.00  0.00  1.00  0.00  0.00  0.00  1.00  0.00
  C30                     1.00   0.00  0.00  0.00  1.00  0.00  0.00  0.00  0.00  0.00
  C31                     1.00   0.00  0.00  0.00  1.00  0.00  0.00  0.00  0.00  0.00
  C32                     1.00   0.00  0.00  0.00  1.00  0.00  0.00  0.00  0.00  0.00
  C33                     1.00   0.00  0.00  0.00  1.00  0.00  0.00  0.00  0.00  0.00
  C34                     1.00   0.00  0.00  0.00  1.00  0.00  0.00  0.00  0.00  0.00
  C35                     1.00   0.00  0.00  0.00  1.00  0.00  0.00  0.00  0.00  0.00
  C37                     1.00   0.00  0.00  0.00  0.00  1.00  0.00  0.00  0.00  0.00
  C38                     1.00   0.00  0.00  0.00  1.00  0.00  0.00  0.00  1.00  0.00
  C39                     1.00   0.00  0.00  0.00  1.00  0.00  0.00  0.00  1.00  0.00
  C0                      1.00   0.00  0.00  0.00  1.00  0.00  0.00  0.00  0.00  0.00
  Calle1                  1.00   0.00  0.00  0.00  1.00  0.00  0.00  0.00  0.00  0.00
  Calle2                  1.00   0.00  0.00  0.00  1.00  0.00  0.00  0.00  1.00  0.00
  Calle3                  1.00   0.00  0.00  0.00  0.81  0.19  0.00  0.00  0.21  0.00
  C40                     1.00   0.00  0.00  0.00  1.00  0.00  0.00  0.00  0.00  0.00
  Calle0                  1.00   0.00  0.00  0.00  0.00  0.00  0.00  1.00  0.00  0.00
  C41                     1.00   0.00  0.00  0.00  0.00  0.00  0.00  1.00  0.00  0.00
  C42                     1.00   0.00  0.00  0.00  1.00  0.00  0.00  0.00  0.92  0.00
  C36                     1.00   0.00  0.00  0.00  0.00  0.00  0.00  1.00  0.00  0.00
  C43                     1.00   0.00  0.00  0.00  1.00  0.00  0.00  0.00  0.00  0.00
  C44                     1.00   0.00  0.00  0.00  1.00  0.00  0.00  0.00  0.04  0.00
  C45                     1.00   0.00  0.00  0.00  1.00  0.00  0.00  0.00  0.00  0.00
  C46                     1.00   0.00  0.00  0.00  1.00  0.00  0.00  0.00  0.00  0.00
  C47                     1.00   0.00  0.00  0.00  1.00  0.00  0.00  0.00  0.00  0.00
  
  
  *************************
  Conduit Surcharge Summary
  *************************
  
  ----------------------------------------------------------------------------
                                                           Hours        Hours 
                         --------- Hours Full --------   Above Full   Capacity
  Conduit                Both Ends  Upstream  Dnstream   Normal Flow   Limited
  ----------------------------------------------------------------------------
  C1                          0.01      0.01      0.01      0.02         0.01
  C38                         0.01      0.01      1.19      0.01         0.01
  C39                         0.01      0.01      1.23      0.01         0.01
  Calle2                      0.01      0.01  17506.88      0.01         0.01
  Calle3                      0.01      0.01   1086.44      0.01         0.01
  C40                         0.01      0.01      0.01      0.01         0.01
  Calle0                      0.01      0.01     13.16      0.01         0.01
  C42                         0.01      0.01     98.59      0.01         0.01
  C45                         0.01      0.01  17503.54      0.01         0.01
  C46                         0.01      0.01  17519.96      0.01         0.01
  C47                         0.01      0.01  17517.68      0.01         0.01
  

  Analysis begun on:  Tue Nov 29 07:17:15 2022
  Analysis ended on:  Tue Nov 29 07:24:58 2022
  Total elapsed time: 00:07:43